/*--------------------------------*- C++ -*----------------------------------*\
  =========                 |
  \\      /  F ield         | OpenFOAM: The Open Source CFD Toolbox
   \\    /   O peration     | Website:  https://openfoam.org
    \\  /    A nd           | Version:  7
     \\/     M anipulation  |
\*---------------------------------------------------------------------------*/
FoamFile
{
    version     2.0;
    format      ascii;
    class       polyBoundaryMesh;
    location    "0.005/polyMesh";
    object      boundary;
}
// * * * * * * * * * * * * * * * * * * * * * * * * * * * * * * * * * * * * * //

8
(
    movingWall
    {
        type            wall;
        inGroups        List<word> 1(wall);
        nFaces          0;
        startFace       653474;
    }
    fixedWalls
    {
        type            wall;
        inGroups        List<word> 1(wall);
        nFaces          0;
        startFace       653474;
    }
    frontAndBack
    {
        type            empty;
        inGroups        List<word> 1(empty);
        nFaces          0;
        startFace       653474;
    }
    inlet
    {
        type            wall;
        inGroups        List<word> 1(wall);
        nFaces          2112;
        startFace       653474;
    }
    nozzle
    {
        type            wall;
        inGroups        List<word> 1(wall);
        nFaces          24802;
        startFace       655586;
    }
    wall
    {
        type            wall;
        inGroups        List<word> 1(wall);
        nFaces          47984;
        startFace       680388;
    }
    topOutflow
    {
        type            wall;
        inGroups        List<word> 1(wall);
        nFaces          8642;
        startFace       728372;
    }
    bottomOutflow
    {
        type            wall;
        inGroups        List<word> 1(wall);
        nFaces          6220;
        startFace       737014;
    }
)

// ************************************************************************* //
