/*--------------------------------*- C++ -*----------------------------------*\
  =========                 |
  \\      /  F ield         | OpenFOAM: The Open Source CFD Toolbox
   \\    /   O peration     | Website:  https://openfoam.org
    \\  /    A nd           | Version:  7
     \\/     M anipulation  |
\*---------------------------------------------------------------------------*/
FoamFile
{
    version     2.0;
    format      ascii;
    class       featureEdgeMesh;
    location    "constant/triSurface";
    object      nozzle_up.eMesh;
}
// * * * * * * * * * * * * * * * * * * * * * * * * * * * * * * * * * * * * * //


// points:

64
(
(0.0325 -0 0.45)
(0.031875 0.00634 0.45)
(0.030026 0.012437 0.45)
(0.027023 0.018056 0.45)
(0.022981 0.022981 0.45)
(0.018056 0.027023 0.45)
(0.012437 0.030026 0.45)
(0.00634 0.031876 0.45)
(-0 0.0325 0.45)
(-0.00634 0.031876 0.45)
(-0.012437 0.030026 0.45)
(-0.018056 0.027023 0.45)
(-0.022981 0.022981 0.45)
(-0.027023 0.018056 0.45)
(-0.030026 0.012437 0.45)
(-0.031875 0.00634 0.45)
(-0.0325 -0 0.45)
(-0.0175 0 0.45)
(-0.017164 0.003414 0.45)
(-0.016168 0.006697 0.45)
(0.017164 0.003414 0.45)
(0.0175 0 0.45)
(0.016168 0.006697 0.45)
(-0.014551 0.009722 0.45)
(-0.012374 0.012374 0.45)
(0.014551 0.009722 0.45)
(0.012374 0.012374 0.45)
(-0.009722 0.014551 0.45)
(0.009722 0.014551 0.45)
(-0.006697 0.016168 0.45)
(-0.003414 0.017164 0.45)
(0.006697 0.016168 0.45)
(0.003414 0.017164 0.45)
(0 0.0175 0.45)
(0.031875 -0.00634 0.45)
(0.017164 -0.003414 0.45)
(0.027023 -0.018056 0.45)
(0.030026 -0.012437 0.45)
(0.018056 -0.027023 0.45)
(0.022981 -0.022981 0.45)
(0.00634 -0.031876 0.45)
(0.012437 -0.030026 0.45)
(-0.00634 -0.031876 0.45)
(-0 -0.0325 0.45)
(-0.018056 -0.027023 0.45)
(-0.012437 -0.030026 0.45)
(-0.027023 -0.018056 0.45)
(-0.022981 -0.022981 0.45)
(-0.031875 -0.00634 0.45)
(-0.030026 -0.012437 0.45)
(-0.017164 -0.003414 0.45)
(0.016168 -0.006697 0.45)
(-0.016168 -0.006697 0.45)
(0.014551 -0.009722 0.45)
(0.012374 -0.012374 0.45)
(-0.014551 -0.009722 0.45)
(-0.012374 -0.012374 0.45)
(0.009722 -0.014551 0.45)
(0.006697 -0.016168 0.45)
(-0.009722 -0.014551 0.45)
(-0.006697 -0.016168 0.45)
(0.003414 -0.017164 0.45)
(-0.003414 -0.017164 0.45)
(-0 -0.0175 0.45)
)


// edges:

128
(
(2 0)
(4 2)
(6 4)
(8 6)
(10 8)
(12 10)
(14 12)
(16 14)
(18 16)
(16 17)
(19 16)
(16 12)
(12 8)
(8 4)
(4 0)
(0 20)
(21 0)
(0 22)
(8 0)
(16 8)
(23 16)
(24 16)
(0 25)
(0 26)
(24 8)
(27 8)
(8 26)
(8 28)
(29 8)
(30 8)
(8 31)
(8 32)
(33 8)
(21 34)
(35 34)
(34 36)
(36 38)
(38 40)
(40 42)
(42 44)
(44 46)
(46 48)
(48 17)
(48 50)
(44 48)
(40 44)
(36 40)
(35 36)
(51 36)
(36 44)
(44 50)
(44 52)
(53 36)
(54 36)
(44 55)
(44 56)
(57 36)
(58 36)
(44 59)
(44 60)
(58 44)
(61 44)
(44 62)
(63 44)
(0 1)
(1 2)
(2 3)
(3 4)
(4 5)
(5 6)
(6 7)
(7 8)
(8 9)
(9 10)
(10 11)
(11 12)
(12 13)
(13 14)
(14 15)
(15 16)
(17 18)
(18 19)
(20 21)
(22 20)
(19 23)
(23 24)
(25 22)
(26 25)
(24 27)
(28 26)
(27 29)
(29 30)
(31 28)
(32 31)
(30 33)
(33 32)
(34 0)
(21 35)
(36 37)
(37 34)
(38 39)
(39 36)
(40 41)
(41 38)
(42 43)
(43 40)
(44 45)
(45 42)
(46 47)
(47 44)
(48 49)
(49 46)
(16 48)
(50 17)
(35 51)
(52 50)
(51 53)
(53 54)
(55 52)
(56 55)
(54 57)
(57 58)
(59 56)
(60 59)
(58 61)
(62 60)
(61 63)
(63 62)
)

// * * * * * * * * * * * * * * * * * * * * * * * * * * * * * * * * * * * * * //


// ************************************************************************* //
