/*--------------------------------*- C++ -*----------------------------------*\
  =========                 |
  \\      /  F ield         | OpenFOAM: The Open Source CFD Toolbox
   \\    /   O peration     | Website:  https://openfoam.org
    \\  /    A nd           | Version:  7
     \\/     M anipulation  |
\*---------------------------------------------------------------------------*/
FoamFile
{
    version     2.0;
    format      ascii;
    class       featureEdgeMesh;
    location    "constant/triSurface";
    object      nozzle_down.eMesh;
}
// * * * * * * * * * * * * * * * * * * * * * * * * * * * * * * * * * * * * * //


// points:

128
(
(0.00634 -0.031876 0.5)
(0.012437 -0.030026 0.5)
(0.012437 -0.030026 0.45)
(0.00634 -0.031876 0.45)
(0.012437 0.030026 0.5)
(0.00634 0.031876 0.5)
(0.00634 0.031876 0.45)
(0.012437 0.030026 0.45)
(-0.018056 0.027023 0.5)
(-0.022981 0.022981 0.5)
(-0.022981 0.022981 0.45)
(-0.018056 0.027023 0.45)
(0 -0.0325 0.5)
(-0 -0.0325 0.45)
(0.018056 0.027023 0.5)
(0.018056 0.027023 0.45)
(-0.012437 0.030026 0.5)
(-0.012437 0.030026 0.45)
(-0.00634 -0.031876 0.5)
(-0.00634 -0.031876 0.45)
(0.022981 0.022981 0.5)
(0.022981 0.022981 0.45)
(-0.00634 0.031876 0.5)
(-0.00634 0.031876 0.45)
(-0.012437 -0.030026 0.5)
(-0.012437 -0.030026 0.45)
(0.027023 0.018056 0.5)
(0.027023 0.018056 0.45)
(0 0.0325 0.5)
(-0 0.0325 0.45)
(-0.018056 -0.027023 0.5)
(-0.018056 -0.027023 0.45)
(0.030026 0.012437 0.5)
(0.030026 0.012437 0.45)
(-0.022981 -0.022981 0.5)
(-0.022981 -0.022981 0.45)
(0.031875 0.00634 0.5)
(0.031875 0.00634 0.45)
(-0.027023 -0.018056 0.5)
(-0.027023 -0.018056 0.45)
(0.0325 0 0.5)
(0.0325 -0 0.45)
(-0.030026 -0.012437 0.5)
(-0.030026 -0.012437 0.45)
(0.031875 -0.00634 0.5)
(0.031875 -0.00634 0.45)
(-0.031875 -0.00634 0.5)
(-0.031875 -0.00634 0.45)
(0.030026 -0.012437 0.5)
(0.030026 -0.012437 0.45)
(-0.0325 0 0.5)
(-0.0325 -0 0.45)
(0.027023 -0.018056 0.5)
(0.027023 -0.018056 0.45)
(-0.031875 0.00634 0.5)
(-0.031875 0.00634 0.45)
(0.022981 -0.022981 0.5)
(0.022981 -0.022981 0.45)
(-0.030026 0.012437 0.5)
(-0.030026 0.012437 0.45)
(0.018056 -0.027023 0.5)
(0.018056 -0.027023 0.45)
(-0.027023 0.018056 0.5)
(-0.027023 0.018056 0.45)
(-0.017164 0.003414 0.45)
(-0.0175 0 0.45)
(-0.0175 0 0.5)
(-0.017164 0.003414 0.5)
(0.012374 -0.012374 0.45)
(0.014551 -0.009722 0.45)
(0.014551 -0.009722 0.5)
(0.012374 -0.012374 0.5)
(-0.016168 0.006697 0.45)
(-0.016168 0.006697 0.5)
(0.009722 -0.014551 0.45)
(0.009722 -0.014551 0.5)
(-0.014551 0.009722 0.45)
(-0.014551 0.009722 0.5)
(0.006697 -0.016168 0.45)
(0.006697 -0.016168 0.5)
(0.003414 0.017164 0.45)
(0 0.0175 0.45)
(0 0.0175 0.5)
(0.003414 0.017164 0.5)
(-0.012374 0.012374 0.45)
(-0.012374 0.012374 0.5)
(0.003414 -0.017164 0.45)
(0.003414 -0.017164 0.5)
(0.006697 0.016168 0.45)
(0.006697 0.016168 0.5)
(-0.009722 0.014551 0.45)
(-0.009722 0.014551 0.5)
(-0 -0.0175 0.45)
(-0 -0.0175 0.5)
(0.009722 0.014551 0.45)
(0.009722 0.014551 0.5)
(-0.006697 0.016168 0.45)
(-0.006697 0.016168 0.5)
(-0.003414 -0.017164 0.45)
(-0.003414 -0.017164 0.5)
(0.012374 0.012374 0.45)
(0.012374 0.012374 0.5)
(-0.003414 0.017164 0.45)
(-0.003414 0.017164 0.5)
(-0.006697 -0.016168 0.45)
(-0.006697 -0.016168 0.5)
(0.014551 0.009722 0.45)
(0.014551 0.009722 0.5)
(-0.009722 -0.014551 0.45)
(-0.009722 -0.014551 0.5)
(0.016168 0.006697 0.45)
(0.016168 0.006697 0.5)
(-0.012374 -0.012374 0.45)
(-0.012374 -0.012374 0.5)
(0.017164 0.003414 0.45)
(0.017164 0.003414 0.5)
(-0.014551 -0.009722 0.45)
(-0.014551 -0.009722 0.5)
(0.0175 0 0.45)
(0.0175 0 0.5)
(-0.016168 -0.006697 0.45)
(-0.016168 -0.006697 0.5)
(0.017164 -0.003414 0.45)
(0.017164 -0.003414 0.5)
(-0.017164 -0.003414 0.45)
(-0.017164 -0.003414 0.5)
(0.016168 -0.006697 0.45)
(0.016168 -0.006697 0.5)
)


// edges:

256
(
(65 66)
(67 64)
(69 70)
(71 68)
(73 72)
(75 74)
(77 76)
(79 78)
(81 82)
(83 80)
(85 84)
(87 86)
(89 88)
(91 90)
(93 92)
(95 94)
(97 96)
(99 98)
(101 100)
(103 102)
(105 104)
(107 106)
(109 108)
(111 110)
(113 112)
(115 114)
(117 116)
(119 118)
(121 120)
(123 122)
(125 124)
(127 126)
(1 2)
(3 0)
(5 6)
(7 4)
(9 10)
(11 8)
(13 12)
(15 14)
(17 16)
(19 18)
(21 20)
(23 22)
(25 24)
(27 26)
(29 28)
(31 30)
(33 32)
(35 34)
(37 36)
(39 38)
(41 40)
(43 42)
(45 44)
(47 46)
(49 48)
(51 50)
(53 52)
(55 54)
(57 56)
(59 58)
(61 60)
(63 62)
(6 4)
(10 8)
(3 12)
(7 14)
(19 24)
(21 26)
(23 28)
(25 30)
(35 38)
(37 40)
(45 48)
(47 50)
(49 52)
(55 58)
(57 60)
(59 62)
(71 74)
(73 76)
(85 90)
(87 92)
(89 94)
(101 106)
(103 81)
(105 108)
(113 116)
(115 118)
(125 65)
(127 69)
(2 0)
(11 16)
(13 18)
(15 20)
(17 22)
(27 32)
(31 34)
(33 36)
(39 42)
(41 44)
(43 46)
(51 54)
(53 56)
(61 1)
(29 5)
(63 9)
(66 64)
(70 68)
(67 72)
(75 78)
(82 80)
(77 84)
(79 86)
(83 88)
(91 96)
(93 98)
(95 100)
(97 102)
(99 104)
(107 110)
(109 112)
(111 114)
(117 120)
(119 122)
(121 124)
(123 126)
(0 1)
(2 3)
(4 5)
(6 7)
(8 9)
(10 11)
(12 0)
(3 13)
(14 4)
(7 15)
(16 8)
(11 17)
(18 12)
(13 19)
(20 14)
(15 21)
(22 16)
(17 23)
(24 18)
(19 25)
(26 20)
(21 27)
(28 22)
(23 29)
(30 24)
(25 31)
(32 26)
(27 33)
(34 30)
(31 35)
(36 32)
(33 37)
(38 34)
(35 39)
(40 36)
(37 41)
(42 38)
(39 43)
(44 40)
(41 45)
(46 42)
(43 47)
(48 44)
(45 49)
(50 46)
(47 51)
(52 48)
(49 53)
(54 50)
(51 55)
(56 52)
(53 57)
(58 54)
(55 59)
(60 56)
(57 61)
(62 58)
(59 63)
(1 60)
(61 2)
(5 28)
(29 6)
(9 62)
(63 10)
(64 65)
(66 67)
(68 69)
(70 71)
(72 64)
(67 73)
(74 68)
(71 75)
(76 72)
(73 77)
(78 74)
(75 79)
(80 81)
(82 83)
(84 76)
(77 85)
(86 78)
(79 87)
(88 80)
(83 89)
(90 84)
(85 91)
(92 86)
(87 93)
(94 88)
(89 95)
(96 90)
(91 97)
(98 92)
(93 99)
(100 94)
(95 101)
(102 96)
(97 103)
(104 98)
(99 105)
(106 100)
(101 107)
(81 102)
(103 82)
(108 104)
(105 109)
(110 106)
(107 111)
(112 108)
(109 113)
(114 110)
(111 115)
(116 112)
(113 117)
(118 114)
(115 119)
(120 116)
(117 121)
(122 118)
(119 123)
(124 120)
(121 125)
(126 122)
(123 127)
(65 124)
(125 66)
(69 126)
(127 70)
)

// * * * * * * * * * * * * * * * * * * * * * * * * * * * * * * * * * * * * * //


// ************************************************************************* //
