/*--------------------------------*- C++ -*----------------------------------*\
  =========                 |
  \\      /  F ield         | OpenFOAM: The Open Source CFD Toolbox
   \\    /   O peration     | Website:  https://openfoam.org
    \\  /    A nd           | Version:  7
     \\/     M anipulation  |
\*---------------------------------------------------------------------------*/
FoamFile
{
    version     2.0;
    format      ascii;
    class       extendedFeatureEdgeMesh;
    location    "constant/extendedFeatureEdgeMesh";
    object      inlet.extendedFeatureEdgeMesh;
}
// * * * * * * * * * * * * * * * * * * * * * * * * * * * * * * * * * * * * * //

// points

32
(
(-0.0175 0 0.5)
(-0.017164 -0.003414 0.5)
(-0.016168 -0.006697 0.5)
(-0.014551 -0.009722 0.5)
(-0.012374 -0.012374 0.5)
(-0.009722 -0.014551 0.5)
(-0.006697 -0.016168 0.5)
(-0.003414 -0.017164 0.5)
(-0 -0.0175 0.5)
(0.003414 -0.017164 0.5)
(0.006697 -0.016168 0.5)
(0.009722 -0.014551 0.5)
(0.012374 -0.012374 0.5)
(0.014551 -0.009722 0.5)
(0.016168 -0.006697 0.5)
(0.017164 -0.003414 0.5)
(0.0175 0 0.5)
(0.017164 0.003414 0.5)
(0.016168 0.006697 0.5)
(0.014551 0.009722 0.5)
(0.012374 0.012374 0.5)
(0.009722 0.014551 0.5)
(0.006697 0.016168 0.5)
(0.003414 0.017164 0.5)
(0 0.0175 0.5)
(-0.003414 0.017164 0.5)
(-0.006697 0.016168 0.5)
(-0.009722 0.014551 0.5)
(-0.012374 0.012374 0.5)
(-0.014551 0.009722 0.5)
(-0.016168 0.006697 0.5)
(-0.017164 0.003414 0.5)
)

// edges

61
(
(2 0)
(4 2)
(6 4)
(8 6)
(10 8)
(12 10)
(14 12)
(16 14)
(18 16)
(20 18)
(22 20)
(24 22)
(26 24)
(28 26)
(30 28)
(0 30)
(4 0)
(8 4)
(12 8)
(16 12)
(20 16)
(24 20)
(28 24)
(0 28)
(8 0)
(16 8)
(24 16)
(0 24)
(16 0)
(0 1)
(1 2)
(2 3)
(3 4)
(4 5)
(5 6)
(6 7)
(7 8)
(8 9)
(9 10)
(10 11)
(11 12)
(12 13)
(13 14)
(14 15)
(15 16)
(16 17)
(17 18)
(18 19)
(19 20)
(20 21)
(21 22)
(22 23)
(23 24)
(24 25)
(25 26)
(26 27)
(27 28)
(28 29)
(29 30)
(30 31)
(31 0)
)

// concaveStart mixedStart nonFeatureStart
0 0 32
// internalStart flatStart openStart multipleStart
0 0 29 61
// normals
30{(0 0 1)}
// normal volume types

30
(
0
0
0
0
0
0
0
0
0
0
0
0
0
0
0
0
0
0
0
0
0
0
0
0
0
0
0
0
0
0
)

// normalDirections

61
(
2(1 -1)
2(1 -1)
2(1 -1)
2(1 -1)
2(1 -1)
2(1 -1)
2(1 -1)
2(1 -1)
2(1 -1)
2(1 -1)
2(1 -1)
2(1 -1)
2(1 -1)
2(1 -1)
2(1 -1)
2(1 -1)
2(1 -1)
2(1 -1)
2(1 -1)
2(1 -1)
2(1 -1)
2(1 -1)
2(1 -1)
2(1 -1)
2(1 -1)
2(1 -1)
2(1 -1)
2(1 -1)
2(1 -1)
1(1)
1(1)
1(1)
1(1)
1(1)
1(1)
1(1)
1(1)
1(1)
1(1)
1(1)
1(1)
1(1)
1(1)
1(1)
1(1)
1(1)
1(1)
1(1)
1(1)
1(1)
1(1)
1(1)
1(1)
1(1)
1(1)
1(1)
1(1)
1(1)
1(1)
1(1)
1(1)
)

// edgeNormals

61
(
2(0 16)
2(1 16)
2(2 17)
2(3 17)
2(4 18)
2(5 18)
2(6 19)
2(7 19)
2(8 20)
2(9 20)
2(10 21)
2(11 21)
2(12 22)
2(13 22)
2(14 23)
2(15 23)
2(16 24)
2(17 24)
2(18 25)
2(19 25)
2(20 26)
2(21 26)
2(22 27)
2(23 27)
2(24 28)
2(25 28)
2(26 29)
2(27 29)
2(28 29)
1(0)
1(0)
1(1)
1(1)
1(2)
1(2)
1(3)
1(3)
1(4)
1(4)
1(5)
1(5)
1(6)
1(6)
1(7)
1(7)
1(8)
1(8)
1(9)
1(9)
1(10)
1(10)
1(11)
1(11)
1(12)
1(12)
1(13)
1(13)
1(14)
1(14)
1(15)
1(15)
)

// featurePointNormals

32
(
1(0)
1(0)
1(0)
1(1)
1(1)
1(2)
1(2)
1(3)
1(3)
1(4)
1(4)
1(5)
1(5)
1(6)
1(6)
1(7)
1(7)
1(8)
1(8)
1(9)
1(9)
1(10)
1(10)
1(11)
1(11)
1(12)
1(12)
1(13)
1(13)
1(14)
1(14)
1(15)
)

// featurePointEdges

32
(
9(0 15 16 23 24 27 28 29 60)
2(29 30)
4(0 1 30 31)
2(31 32)
6(1 2 16 17 32 33)
2(33 34)
4(2 3 34 35)
2(35 36)
8(3 4 17 18 24 25 36 37)
2(37 38)
4(4 5 38 39)
2(39 40)
6(5 6 18 19 40 41)
2(41 42)
4(6 7 42 43)
2(43 44)
9(7 8 19 20 25 26 28 44 45)
2(45 46)
4(8 9 46 47)
2(47 48)
6(9 10 20 21 48 49)
2(49 50)
4(10 11 50 51)
2(51 52)
8(11 12 21 22 26 27 52 53)
2(53 54)
4(12 13 54 55)
2(55 56)
6(13 14 22 23 56 57)
2(57 58)
4(14 15 58 59)
2(59 60)
)

// regionEdges

32
(
29
30
31
32
33
34
35
36
37
38
39
40
41
42
43
44
45
46
47
48
49
50
51
52
53
54
55
56
57
58
59
60
)



// ************************************************************************* //
