/*--------------------------------*- C++ -*----------------------------------*\
  =========                 |
  \\      /  F ield         | OpenFOAM: The Open Source CFD Toolbox
   \\    /   O peration     | Website:  https://openfoam.org
    \\  /    A nd           | Version:  7
     \\/     M anipulation  |
\*---------------------------------------------------------------------------*/
FoamFile
{
    version     2.0;
    format      ascii;
    class       extendedFeatureEdgeMesh;
    location    "constant/extendedFeatureEdgeMesh";
    object      nozzle_up.extendedFeatureEdgeMesh;
}
// * * * * * * * * * * * * * * * * * * * * * * * * * * * * * * * * * * * * * //

// points

64
(
(0.0325 -0 0.45)
(0.031875 0.00634 0.45)
(0.030026 0.012437 0.45)
(0.027023 0.018056 0.45)
(0.022981 0.022981 0.45)
(0.018056 0.027023 0.45)
(0.012437 0.030026 0.45)
(0.00634 0.031876 0.45)
(-0 0.0325 0.45)
(-0.00634 0.031876 0.45)
(-0.012437 0.030026 0.45)
(-0.018056 0.027023 0.45)
(-0.022981 0.022981 0.45)
(-0.027023 0.018056 0.45)
(-0.030026 0.012437 0.45)
(-0.031875 0.00634 0.45)
(-0.0325 -0 0.45)
(-0.0175 0 0.45)
(-0.017164 0.003414 0.45)
(-0.016168 0.006697 0.45)
(0.017164 0.003414 0.45)
(0.0175 0 0.45)
(0.016168 0.006697 0.45)
(-0.014551 0.009722 0.45)
(-0.012374 0.012374 0.45)
(0.014551 0.009722 0.45)
(0.012374 0.012374 0.45)
(-0.009722 0.014551 0.45)
(0.009722 0.014551 0.45)
(-0.006697 0.016168 0.45)
(-0.003414 0.017164 0.45)
(0.006697 0.016168 0.45)
(0.003414 0.017164 0.45)
(0 0.0175 0.45)
(0.031875 -0.00634 0.45)
(0.017164 -0.003414 0.45)
(0.027023 -0.018056 0.45)
(0.030026 -0.012437 0.45)
(0.018056 -0.027023 0.45)
(0.022981 -0.022981 0.45)
(0.00634 -0.031876 0.45)
(0.012437 -0.030026 0.45)
(-0.00634 -0.031876 0.45)
(-0 -0.0325 0.45)
(-0.018056 -0.027023 0.45)
(-0.012437 -0.030026 0.45)
(-0.027023 -0.018056 0.45)
(-0.022981 -0.022981 0.45)
(-0.031875 -0.00634 0.45)
(-0.030026 -0.012437 0.45)
(-0.017164 -0.003414 0.45)
(0.016168 -0.006697 0.45)
(-0.016168 -0.006697 0.45)
(0.014551 -0.009722 0.45)
(0.012374 -0.012374 0.45)
(-0.014551 -0.009722 0.45)
(-0.012374 -0.012374 0.45)
(0.009722 -0.014551 0.45)
(0.006697 -0.016168 0.45)
(-0.009722 -0.014551 0.45)
(-0.006697 -0.016168 0.45)
(0.003414 -0.017164 0.45)
(-0.003414 -0.017164 0.45)
(-0 -0.0175 0.45)
)

// edges

128
(
(2 0)
(4 2)
(6 4)
(8 6)
(10 8)
(12 10)
(14 12)
(16 14)
(18 16)
(16 17)
(19 16)
(16 12)
(12 8)
(8 4)
(4 0)
(0 20)
(21 0)
(0 22)
(8 0)
(16 8)
(23 16)
(24 16)
(0 25)
(0 26)
(24 8)
(27 8)
(8 26)
(8 28)
(29 8)
(30 8)
(8 31)
(8 32)
(33 8)
(21 34)
(35 34)
(34 36)
(36 38)
(38 40)
(40 42)
(42 44)
(44 46)
(46 48)
(48 17)
(48 50)
(44 48)
(40 44)
(36 40)
(35 36)
(51 36)
(36 44)
(44 50)
(44 52)
(53 36)
(54 36)
(44 55)
(44 56)
(57 36)
(58 36)
(44 59)
(44 60)
(58 44)
(61 44)
(44 62)
(63 44)
(0 1)
(1 2)
(2 3)
(3 4)
(4 5)
(5 6)
(6 7)
(7 8)
(8 9)
(9 10)
(10 11)
(11 12)
(12 13)
(13 14)
(14 15)
(15 16)
(17 18)
(18 19)
(20 21)
(22 20)
(19 23)
(23 24)
(25 22)
(26 25)
(24 27)
(28 26)
(27 29)
(29 30)
(31 28)
(32 31)
(30 33)
(33 32)
(34 0)
(21 35)
(36 37)
(37 34)
(38 39)
(39 36)
(40 41)
(41 38)
(42 43)
(43 40)
(44 45)
(45 42)
(46 47)
(47 44)
(48 49)
(49 46)
(16 48)
(50 17)
(35 51)
(52 50)
(51 53)
(53 54)
(55 52)
(56 55)
(54 57)
(57 58)
(59 56)
(60 59)
(58 61)
(62 60)
(61 63)
(63 62)
)

// concaveStart mixedStart nonFeatureStart
0 0 64
// internalStart flatStart openStart multipleStart
0 0 64 128
// normals
64{(0 0 1)}
// normal volume types

64
(
0
0
0
0
0
0
0
0
0
0
0
0
0
0
0
0
0
0
0
0
0
0
0
0
0
0
0
0
0
0
0
0
0
0
0
0
0
0
0
0
0
0
0
0
0
0
0
0
0
0
0
0
0
0
0
0
0
0
0
0
0
0
0
0
)

// normalDirections

128
(
2(1 -1)
2(1 -1)
2(1 -1)
2(1 -1)
2(1 -1)
2(1 -1)
2(1 -1)
2(1 -1)
2(1 -1)
2(1 -1)
2(1 -1)
2(1 -1)
2(1 -1)
2(1 -1)
2(1 -1)
2(1 -1)
2(1 -1)
2(1 -1)
2(1 -1)
2(1 -1)
2(1 -1)
2(1 -1)
2(1 -1)
2(1 -1)
2(1 -1)
2(1 -1)
2(1 -1)
2(1 -1)
2(1 -1)
2(1 -1)
2(1 -1)
2(1 -1)
2(1 -1)
2(1 -1)
2(1 -1)
2(1 -1)
2(1 -1)
2(1 -1)
2(1 -1)
2(1 -1)
2(1 -1)
2(1 -1)
2(1 -1)
2(1 -1)
2(1 -1)
2(1 -1)
2(1 -1)
2(1 -1)
2(1 -1)
2(1 -1)
2(1 -1)
2(1 -1)
2(1 -1)
2(1 -1)
2(1 -1)
2(1 -1)
2(1 -1)
2(1 -1)
2(1 -1)
2(1 -1)
2(1 -1)
2(1 -1)
2(1 -1)
2(1 -1)
1(1)
1(1)
1(1)
1(1)
1(1)
1(1)
1(1)
1(1)
1(1)
1(1)
1(1)
1(1)
1(1)
1(1)
1(1)
1(1)
1(1)
1(1)
1(1)
1(1)
1(1)
1(1)
1(1)
1(1)
1(1)
1(1)
1(1)
1(1)
1(1)
1(1)
1(1)
1(1)
1(1)
1(1)
1(1)
1(1)
1(1)
1(1)
1(1)
1(1)
1(1)
1(1)
1(1)
1(1)
1(1)
1(1)
1(1)
1(1)
1(1)
1(1)
1(1)
1(1)
1(1)
1(1)
1(1)
1(1)
1(1)
1(1)
1(1)
1(1)
1(1)
1(1)
1(1)
1(1)
)

// edgeNormals

128
(
2(0 49)
2(1 49)
2(2 50)
2(3 50)
2(4 51)
2(5 51)
2(6 52)
2(7 52)
2(8 9)
2(8 33)
2(9 12)
2(52 53)
2(51 53)
2(50 54)
2(49 54)
2(10 11)
2(10 24)
2(11 14)
2(54 55)
2(53 56)
2(12 13)
2(13 56)
2(14 15)
2(15 55)
2(56 16)
2(16 18)
2(55 17)
2(17 20)
2(18 19)
2(19 22)
2(20 21)
2(21 23)
2(22 23)
2(24 25)
2(25 57)
2(26 57)
2(27 58)
2(28 58)
2(29 59)
2(30 59)
2(31 60)
2(32 60)
2(33 34)
2(34 61)
2(60 61)
2(59 62)
2(58 62)
2(57 35)
2(35 37)
2(62 63)
2(61 36)
2(36 39)
2(37 38)
2(38 41)
2(39 40)
2(40 43)
2(41 42)
2(42 63)
2(43 44)
2(44 46)
2(63 45)
2(45 47)
2(46 48)
2(47 48)
1(0)
1(0)
1(1)
1(1)
1(2)
1(2)
1(3)
1(3)
1(4)
1(4)
1(5)
1(5)
1(6)
1(6)
1(7)
1(7)
1(8)
1(9)
1(10)
1(11)
1(12)
1(13)
1(14)
1(15)
1(16)
1(17)
1(18)
1(19)
1(20)
1(21)
1(22)
1(23)
1(24)
1(25)
1(26)
1(26)
1(27)
1(27)
1(28)
1(28)
1(29)
1(29)
1(30)
1(30)
1(31)
1(31)
1(32)
1(32)
1(33)
1(34)
1(35)
1(36)
1(37)
1(38)
1(39)
1(40)
1(41)
1(42)
1(43)
1(44)
1(45)
1(46)
1(47)
1(48)
)

// featurePointNormals

64
(
1(0)
1(0)
1(0)
1(1)
1(1)
1(2)
1(2)
1(3)
1(3)
1(4)
1(4)
1(5)
1(5)
1(6)
1(6)
1(7)
1(7)
1(8)
1(8)
1(9)
1(10)
1(10)
1(11)
1(12)
1(13)
1(14)
1(15)
1(16)
1(17)
1(18)
1(19)
1(20)
1(21)
1(22)
1(24)
1(25)
1(26)
1(26)
1(27)
1(27)
1(28)
1(28)
1(29)
1(29)
1(30)
1(30)
1(31)
1(31)
1(32)
1(32)
1(34)
1(35)
1(36)
1(37)
1(38)
1(39)
1(40)
1(41)
1(42)
1(43)
1(44)
1(45)
1(46)
1(47)
)

// featurePointEdges

64
(
10(0 14 15 16 17 18 22 23 64 96)
2(64 65)
4(0 1 65 66)
2(66 67)
6(1 2 13 14 67 68)
2(68 69)
4(2 3 69 70)
2(70 71)

17
(
3
4
12
13
18
19
24
25
26
27
28
29
30
31
32
71
72
)

2(72 73)
4(4 5 73 74)
2(74 75)
6(5 6 11 12 75 76)
2(76 77)
4(6 7 77 78)
2(78 79)
10(7 8 9 10 11 19 20 21 79 112)
4(9 42 80 113)
3(8 80 81)
3(10 81 84)
3(15 82 83)
4(16 33 82 97)
3(17 83 86)
3(20 84 85)
4(21 24 85 88)
3(22 86 87)
4(23 26 87 89)
3(25 88 90)
3(27 89 92)
3(28 90 91)
3(29 91 94)
3(30 92 93)
3(31 93 95)
3(32 94 95)
5(33 34 35 96 99)
4(34 47 97 114)

12
(
35
36
46
47
48
49
52
53
56
57
98
101
)

2(98 99)
4(36 37 100 103)
2(100 101)
6(37 38 45 46 102 105)
2(102 103)
4(38 39 104 107)
2(104 105)

17
(
39
40
44
45
49
50
51
54
55
58
59
60
61
62
63
106
109
)

2(106 107)
4(40 41 108 111)
2(108 109)
6(41 42 43 44 110 112)
2(110 111)
4(43 50 113 115)
3(48 114 116)
3(51 115 118)
3(52 116 117)
3(53 117 120)
3(54 118 119)
3(55 119 122)
3(56 120 121)
4(57 60 121 124)
3(58 122 123)
3(59 123 125)
3(61 124 126)
3(62 125 127)
3(63 126 127)
)

// regionEdges

64
(
64
65
66
67
68
69
70
71
72
73
74
75
76
77
78
79
80
81
82
83
84
85
86
87
88
89
90
91
92
93
94
95
96
97
98
99
100
101
102
103
104
105
106
107
108
109
110
111
112
113
114
115
116
117
118
119
120
121
122
123
124
125
126
127
)



// ************************************************************************* //
