/*--------------------------------*- C++ -*----------------------------------*\
  =========                 |
  \\      /  F ield         | OpenFOAM: The Open Source CFD Toolbox
   \\    /   O peration     | Website:  https://openfoam.org
    \\  /    A nd           | Version:  7
     \\/     M anipulation  |
\*---------------------------------------------------------------------------*/
FoamFile
{
    version     2.0;
    format      ascii;
    class       extendedFeatureEdgeMesh;
    location    "constant/extendedFeatureEdgeMesh";
    object      nozzle_down.extendedFeatureEdgeMesh;
}
// * * * * * * * * * * * * * * * * * * * * * * * * * * * * * * * * * * * * * //

// points

128
(
(0.00634 -0.031876 0.5)
(0.012437 -0.030026 0.5)
(0.012437 -0.030026 0.45)
(0.00634 -0.031876 0.45)
(0.012437 0.030026 0.5)
(0.00634 0.031876 0.5)
(0.00634 0.031876 0.45)
(0.012437 0.030026 0.45)
(-0.018056 0.027023 0.5)
(-0.022981 0.022981 0.5)
(-0.022981 0.022981 0.45)
(-0.018056 0.027023 0.45)
(0 -0.0325 0.5)
(-0 -0.0325 0.45)
(0.018056 0.027023 0.5)
(0.018056 0.027023 0.45)
(-0.012437 0.030026 0.5)
(-0.012437 0.030026 0.45)
(-0.00634 -0.031876 0.5)
(-0.00634 -0.031876 0.45)
(0.022981 0.022981 0.5)
(0.022981 0.022981 0.45)
(-0.00634 0.031876 0.5)
(-0.00634 0.031876 0.45)
(-0.012437 -0.030026 0.5)
(-0.012437 -0.030026 0.45)
(0.027023 0.018056 0.5)
(0.027023 0.018056 0.45)
(0 0.0325 0.5)
(-0 0.0325 0.45)
(-0.018056 -0.027023 0.5)
(-0.018056 -0.027023 0.45)
(0.030026 0.012437 0.5)
(0.030026 0.012437 0.45)
(-0.022981 -0.022981 0.5)
(-0.022981 -0.022981 0.45)
(0.031875 0.00634 0.5)
(0.031875 0.00634 0.45)
(-0.027023 -0.018056 0.5)
(-0.027023 -0.018056 0.45)
(0.0325 0 0.5)
(0.0325 -0 0.45)
(-0.030026 -0.012437 0.5)
(-0.030026 -0.012437 0.45)
(0.031875 -0.00634 0.5)
(0.031875 -0.00634 0.45)
(-0.031875 -0.00634 0.5)
(-0.031875 -0.00634 0.45)
(0.030026 -0.012437 0.5)
(0.030026 -0.012437 0.45)
(-0.0325 0 0.5)
(-0.0325 -0 0.45)
(0.027023 -0.018056 0.5)
(0.027023 -0.018056 0.45)
(-0.031875 0.00634 0.5)
(-0.031875 0.00634 0.45)
(0.022981 -0.022981 0.5)
(0.022981 -0.022981 0.45)
(-0.030026 0.012437 0.5)
(-0.030026 0.012437 0.45)
(0.018056 -0.027023 0.5)
(0.018056 -0.027023 0.45)
(-0.027023 0.018056 0.5)
(-0.027023 0.018056 0.45)
(-0.017164 0.003414 0.45)
(-0.0175 0 0.45)
(-0.0175 0 0.5)
(-0.017164 0.003414 0.5)
(0.012374 -0.012374 0.45)
(0.014551 -0.009722 0.45)
(0.014551 -0.009722 0.5)
(0.012374 -0.012374 0.5)
(-0.016168 0.006697 0.45)
(-0.016168 0.006697 0.5)
(0.009722 -0.014551 0.45)
(0.009722 -0.014551 0.5)
(-0.014551 0.009722 0.45)
(-0.014551 0.009722 0.5)
(0.006697 -0.016168 0.45)
(0.006697 -0.016168 0.5)
(0.003414 0.017164 0.45)
(0 0.0175 0.45)
(0 0.0175 0.5)
(0.003414 0.017164 0.5)
(-0.012374 0.012374 0.45)
(-0.012374 0.012374 0.5)
(0.003414 -0.017164 0.45)
(0.003414 -0.017164 0.5)
(0.006697 0.016168 0.45)
(0.006697 0.016168 0.5)
(-0.009722 0.014551 0.45)
(-0.009722 0.014551 0.5)
(-0 -0.0175 0.45)
(-0 -0.0175 0.5)
(0.009722 0.014551 0.45)
(0.009722 0.014551 0.5)
(-0.006697 0.016168 0.45)
(-0.006697 0.016168 0.5)
(-0.003414 -0.017164 0.45)
(-0.003414 -0.017164 0.5)
(0.012374 0.012374 0.45)
(0.012374 0.012374 0.5)
(-0.003414 0.017164 0.45)
(-0.003414 0.017164 0.5)
(-0.006697 -0.016168 0.45)
(-0.006697 -0.016168 0.5)
(0.014551 0.009722 0.45)
(0.014551 0.009722 0.5)
(-0.009722 -0.014551 0.45)
(-0.009722 -0.014551 0.5)
(0.016168 0.006697 0.45)
(0.016168 0.006697 0.5)
(-0.012374 -0.012374 0.45)
(-0.012374 -0.012374 0.5)
(0.017164 0.003414 0.45)
(0.017164 0.003414 0.5)
(-0.014551 -0.009722 0.45)
(-0.014551 -0.009722 0.5)
(0.0175 0 0.45)
(0.0175 0 0.5)
(-0.016168 -0.006697 0.45)
(-0.016168 -0.006697 0.5)
(0.017164 -0.003414 0.45)
(0.017164 -0.003414 0.5)
(-0.017164 -0.003414 0.45)
(-0.017164 -0.003414 0.5)
(0.016168 -0.006697 0.45)
(0.016168 -0.006697 0.5)
)

// edges

256
(
(65 66)
(67 64)
(69 70)
(71 68)
(73 72)
(75 74)
(77 76)
(79 78)
(81 82)
(83 80)
(85 84)
(87 86)
(89 88)
(91 90)
(93 92)
(95 94)
(97 96)
(99 98)
(101 100)
(103 102)
(105 104)
(107 106)
(109 108)
(111 110)
(113 112)
(115 114)
(117 116)
(119 118)
(121 120)
(123 122)
(125 124)
(127 126)
(1 2)
(3 0)
(5 6)
(7 4)
(9 10)
(11 8)
(13 12)
(15 14)
(17 16)
(19 18)
(21 20)
(23 22)
(25 24)
(27 26)
(29 28)
(31 30)
(33 32)
(35 34)
(37 36)
(39 38)
(41 40)
(43 42)
(45 44)
(47 46)
(49 48)
(51 50)
(53 52)
(55 54)
(57 56)
(59 58)
(61 60)
(63 62)
(6 4)
(10 8)
(3 12)
(7 14)
(19 24)
(21 26)
(23 28)
(25 30)
(35 38)
(37 40)
(45 48)
(47 50)
(49 52)
(55 58)
(57 60)
(59 62)
(71 74)
(73 76)
(85 90)
(87 92)
(89 94)
(101 106)
(103 81)
(105 108)
(113 116)
(115 118)
(125 65)
(127 69)
(2 0)
(11 16)
(13 18)
(15 20)
(17 22)
(27 32)
(31 34)
(33 36)
(39 42)
(41 44)
(43 46)
(51 54)
(53 56)
(61 1)
(29 5)
(63 9)
(66 64)
(70 68)
(67 72)
(75 78)
(82 80)
(77 84)
(79 86)
(83 88)
(91 96)
(93 98)
(95 100)
(97 102)
(99 104)
(107 110)
(109 112)
(111 114)
(117 120)
(119 122)
(121 124)
(123 126)
(0 1)
(2 3)
(4 5)
(6 7)
(8 9)
(10 11)
(12 0)
(3 13)
(14 4)
(7 15)
(16 8)
(11 17)
(18 12)
(13 19)
(20 14)
(15 21)
(22 16)
(17 23)
(24 18)
(19 25)
(26 20)
(21 27)
(28 22)
(23 29)
(30 24)
(25 31)
(32 26)
(27 33)
(34 30)
(31 35)
(36 32)
(33 37)
(38 34)
(35 39)
(40 36)
(37 41)
(42 38)
(39 43)
(44 40)
(41 45)
(46 42)
(43 47)
(48 44)
(45 49)
(50 46)
(47 51)
(52 48)
(49 53)
(54 50)
(51 55)
(56 52)
(53 57)
(58 54)
(55 59)
(60 56)
(57 61)
(62 58)
(59 63)
(1 60)
(61 2)
(5 28)
(29 6)
(9 62)
(63 10)
(64 65)
(66 67)
(68 69)
(70 71)
(72 64)
(67 73)
(74 68)
(71 75)
(76 72)
(73 77)
(78 74)
(75 79)
(80 81)
(82 83)
(84 76)
(77 85)
(86 78)
(79 87)
(88 80)
(83 89)
(90 84)
(85 91)
(92 86)
(87 93)
(94 88)
(89 95)
(96 90)
(91 97)
(98 92)
(93 99)
(100 94)
(95 101)
(102 96)
(97 103)
(104 98)
(99 105)
(106 100)
(101 107)
(81 102)
(103 82)
(108 104)
(105 109)
(110 106)
(107 111)
(112 108)
(109 113)
(114 110)
(111 115)
(116 112)
(113 117)
(118 114)
(115 119)
(120 116)
(117 121)
(122 118)
(119 123)
(124 120)
(121 125)
(126 122)
(123 127)
(65 124)
(125 66)
(69 126)
(127 70)
)

// concaveStart mixedStart nonFeatureStart
0 0 128
// internalStart flatStart openStart multipleStart
32 64 128 256
// normals

128
(
(-0.290356 0.956919 0)
(-0.290356 0.956919 0)
(-0.290356 -0.956919 0)
(-0.290356 -0.956919 -0)
(0.634408 -0.772998 0)
(0.634408 -0.772998 0)
(-0.097949 0.995191 0)
(-0.097949 0.995191 0)
(-0.471346 -0.881949 0)
(-0.471346 -0.881949 -0)
(0.471346 -0.881949 0)
(0.471346 -0.881949 0)
(0.097949 0.995191 0)
(0.097949 0.995191 0)
(-0.634408 -0.772998 0)
(-0.634408 -0.772998 -0)
(0.290356 -0.956919 0)
(0.290356 -0.956919 0)
(0.290356 0.956919 0)
(0.290356 0.956919 0)
(-0.772998 -0.634408 0)
(-0.772998 -0.634408 -0)
(0.097949 -0.995191 0)
(0.097949 -0.995191 -0)
(0.471346 0.881949 0)
(0.471346 0.881949 0)
(-0.881949 -0.471346 0)
(-0.881949 -0.471346 -0)
(0.634408 0.772998 0)
(0.634408 0.772998 0)
(-0.956962 -0.290212 0)
(-0.956962 -0.290212 -0)
(0.772998 0.634408 0)
(0.772998 0.634408 0)
(-0.995176 -0.0981048 0)
(-0.995176 -0.0981048 0)
(0.881949 0.471346 0)
(0.881949 0.471346 0)
(-0.995176 0.0981048 0)
(-0.995176 0.0981048 0)
(0.956962 0.290212 0)
(0.956962 0.290212 0)
(-0.956962 0.290212 0)
(-0.956962 0.290212 0)
(0.995176 0.0981048 0)
(0.995176 0.0981048 0)
(-0.881949 0.471346 0)
(-0.881949 0.471346 0)
(0.995176 -0.0981048 0)
(0.995176 -0.0981048 0)
(-0.772998 0.634408 0)
(-0.772998 0.634408 0)
(0.956962 -0.290212 0)
(0.956962 -0.290212 0)
(-0.634408 0.772998 0)
(-0.634408 0.772998 0)
(0.881949 -0.471346 0)
(0.881949 -0.471346 0)
(-0.471346 0.881949 0)
(-0.471346 0.881949 0)
(-0.097949 -0.995191 0)
(-0.097949 -0.995191 -0)
(0.772998 -0.634408 0)
(0.772998 -0.634408 0)
(-0.995192 0.0979453 0)
(-0.995192 0.0979453 0)
(0.77293 -0.634491 0)
(0.77293 -0.634491 0)
(-0.956931 0.290315 0)
(-0.956931 0.290315 0)
(0.634491 -0.77293 0)
(0.634491 -0.77293 0)
(-0.881909 0.47142 0)
(-0.881909 0.47142 0)
(0.47142 -0.881909 0)
(0.47142 -0.881909 0)
(0.0979453 0.995192 0)
(0.0979453 0.995192 -0)
(-0.77293 0.634491 0)
(-0.77293 0.634491 0)
(0.290315 -0.956931 0)
(0.290315 -0.956931 0)
(0.290315 0.956931 0)
(0.290315 0.956931 -0)
(-0.634491 0.77293 0)
(-0.634491 0.77293 0)
(0.0979453 -0.995192 0)
(0.0979453 -0.995192 0)
(0.47142 0.881909 0)
(0.47142 0.881909 -0)
(-0.47142 0.881909 0)
(-0.47142 0.881909 0)
(-0.0979453 -0.995192 0)
(-0.0979453 -0.995192 0)
(0.634491 0.77293 0)
(0.634491 0.77293 -0)
(-0.290315 0.956931 0)
(-0.290315 0.956931 0)
(-0.290315 -0.956931 0)
(-0.290315 -0.956931 0)
(0.77293 0.634491 0)
(0.77293 0.634491 -0)
(-0.0979453 0.995192 0)
(-0.0979453 0.995192 0)
(-0.47142 -0.881909 0)
(-0.47142 -0.881909 0)
(0.881909 0.47142 0)
(0.881909 0.47142 -0)
(-0.634491 -0.77293 0)
(-0.634491 -0.77293 0)
(0.956931 0.290315 0)
(0.956931 0.290315 -0)
(-0.77293 -0.634491 0)
(-0.77293 -0.634491 0)
(0.995192 0.0979453 0)
(0.995192 0.0979453 -0)
(-0.881909 -0.47142 0)
(-0.881909 -0.47142 0)
(0.995192 -0.0979453 0)
(0.995192 -0.0979453 0)
(-0.956931 -0.290315 0)
(-0.956931 -0.290315 0)
(0.956931 -0.290315 0)
(0.956931 -0.290315 0)
(-0.995192 -0.0979453 0)
(-0.995192 -0.0979453 0)
(0.881909 -0.47142 0)
(0.881909 -0.47142 0)
)

// normal volume types

128
(
0
0
0
0
0
0
0
0
0
0
0
0
0
0
0
0
0
0
0
0
0
0
0
0
0
0
0
0
0
0
0
0
0
0
0
0
0
0
0
0
0
0
0
0
0
0
0
0
0
0
0
0
0
0
0
0
0
0
0
0
0
0
0
0
0
0
0
0
0
0
0
0
0
0
0
0
0
0
0
0
0
0
0
0
0
0
0
0
0
0
0
0
0
0
0
0
0
0
0
0
0
0
0
0
0
0
0
0
0
0
0
0
0
0
0
0
0
0
0
0
0
0
0
0
0
0
0
0
)

// normalDirections

256
(
2(1 -1)
2(1 -1)
2(1 -1)
2(1 -1)
2(1 -1)
2(1 -1)
2(1 -1)
2(1 -1)
2(1 -1)
2(1 -1)
2(1 -1)
2(1 -1)
2(1 -1)
2(1 -1)
2(1 -1)
2(1 -1)
2(1 -1)
2(1 -1)
2(1 -1)
2(1 -1)
2(1 -1)
2(1 -1)
2(1 -1)
2(1 -1)
2(1 -1)
2(1 -1)
2(1 -1)
2(1 -1)
2(1 -1)
2(1 -1)
2(1 -1)
2(1 -1)
2(1 -1)
2(1 -1)
2(1 -1)
2(1 -1)
2(1 -1)
2(1 -1)
2(1 -1)
2(1 -1)
2(1 -1)
2(1 -1)
2(1 -1)
2(1 -1)
2(1 -1)
2(1 -1)
2(1 -1)
2(1 -1)
2(1 -1)
2(1 -1)
2(1 -1)
2(1 -1)
2(1 -1)
2(1 -1)
2(1 -1)
2(1 -1)
2(1 -1)
2(1 -1)
2(1 -1)
2(1 -1)
2(1 -1)
2(1 -1)
2(1 -1)
2(1 -1)
2(1 -1)
2(1 -1)
2(1 -1)
2(1 -1)
2(1 -1)
2(1 -1)
2(1 -1)
2(1 -1)
2(1 -1)
2(1 -1)
2(1 -1)
2(1 -1)
2(1 -1)
2(1 -1)
2(1 -1)
2(1 -1)
2(1 -1)
2(1 -1)
2(1 -1)
2(1 -1)
2(1 -1)
2(1 -1)
2(1 -1)
2(1 -1)
2(1 -1)
2(1 -1)
2(1 -1)
2(1 -1)
2(1 -1)
2(1 -1)
2(1 -1)
2(1 -1)
2(1 -1)
2(1 -1)
2(1 -1)
2(1 -1)
2(1 -1)
2(1 -1)
2(1 -1)
2(1 -1)
2(1 -1)
2(1 -1)
2(1 -1)
2(1 -1)
2(1 -1)
2(1 -1)
2(1 -1)
2(1 -1)
2(1 -1)
2(1 -1)
2(1 -1)
2(1 -1)
2(1 -1)
2(1 -1)
2(1 -1)
2(1 -1)
2(1 -1)
2(1 -1)
2(1 -1)
2(1 -1)
2(1 -1)
2(1 -1)
2(1 -1)
2(1 -1)
1(1)
1(1)
1(1)
1(1)
1(1)
1(1)
1(1)
1(1)
1(1)
1(1)
1(1)
1(1)
1(1)
1(1)
1(1)
1(1)
1(1)
1(1)
1(1)
1(1)
1(1)
1(1)
1(1)
1(1)
1(1)
1(1)
1(1)
1(1)
1(1)
1(1)
1(1)
1(1)
1(1)
1(1)
1(1)
1(1)
1(1)
1(1)
1(1)
1(1)
1(1)
1(1)
1(1)
1(1)
1(1)
1(1)
1(1)
1(1)
1(1)
1(1)
1(1)
1(1)
1(1)
1(1)
1(1)
1(1)
1(1)
1(1)
1(1)
1(1)
1(1)
1(1)
1(1)
1(1)
1(1)
1(1)
1(1)
1(1)
1(1)
1(1)
1(1)
1(1)
1(1)
1(1)
1(1)
1(1)
1(1)
1(1)
1(1)
1(1)
1(1)
1(1)
1(1)
1(1)
1(1)
1(1)
1(1)
1(1)
1(1)
1(1)
1(1)
1(1)
1(1)
1(1)
1(1)
1(1)
1(1)
1(1)
1(1)
1(1)
1(1)
1(1)
1(1)
1(1)
1(1)
1(1)
1(1)
1(1)
1(1)
1(1)
1(1)
1(1)
1(1)
1(1)
1(1)
1(1)
1(1)
1(1)
1(1)
1(1)
1(1)
1(1)
1(1)
1(1)
1(1)
1(1)
1(1)
1(1)
)

// edgeNormals

256
(
2(64 125)
2(65 68)
2(66 127)
2(67 70)
2(69 72)
2(71 74)
2(73 78)
2(75 80)
2(76 103)
2(77 82)
2(79 84)
2(81 86)
2(83 88)
2(85 90)
2(87 92)
2(89 94)
2(91 96)
2(93 98)
2(95 100)
2(97 102)
2(99 104)
2(101 106)
2(105 108)
2(107 110)
2(109 112)
2(111 114)
2(113 116)
2(115 118)
2(117 120)
2(119 122)
2(121 124)
2(123 126)
2(0 59)
2(1 6)
2(2 61)
2(3 8)
2(4 63)
2(5 10)
2(7 12)
2(9 14)
2(11 16)
2(13 18)
2(15 20)
2(17 22)
2(19 24)
2(21 26)
2(23 60)
2(25 28)
2(27 30)
2(29 32)
2(31 34)
2(33 36)
2(35 38)
2(37 40)
2(39 42)
2(41 44)
2(43 46)
2(45 48)
2(47 50)
2(49 52)
2(51 54)
2(53 56)
2(55 58)
2(57 62)
2(2 3)
2(4 5)
2(6 7)
2(8 9)
2(18 19)
2(20 21)
2(22 23)
2(24 25)
2(32 33)
2(34 35)
2(42 43)
2(44 45)
2(46 47)
2(52 53)
2(54 55)
2(56 57)
2(70 71)
2(72 73)
2(84 85)
2(86 87)
2(88 89)
2(100 101)
2(102 103)
2(104 105)
2(112 113)
2(114 115)
2(124 125)
2(126 127)
2(0 1)
2(10 11)
2(12 13)
2(14 15)
2(16 17)
2(26 27)
2(28 29)
2(30 31)
2(36 37)
2(38 39)
2(40 41)
2(48 49)
2(50 51)
2(58 59)
2(60 61)
2(62 63)
2(64 65)
2(66 67)
2(68 69)
2(74 75)
2(76 77)
2(78 79)
2(80 81)
2(82 83)
2(90 91)
2(92 93)
2(94 95)
2(96 97)
2(98 99)
2(106 107)
2(108 109)
2(110 111)
2(116 117)
2(118 119)
2(120 121)
2(122 123)
1(0)
1(1)
1(2)
1(3)
1(4)
1(5)
1(6)
1(7)
1(8)
1(9)
1(10)
1(11)
1(12)
1(13)
1(14)
1(15)
1(16)
1(17)
1(18)
1(19)
1(20)
1(21)
1(22)
1(23)
1(24)
1(25)
1(26)
1(27)
1(28)
1(29)
1(30)
1(31)
1(32)
1(33)
1(34)
1(35)
1(36)
1(37)
1(38)
1(39)
1(40)
1(41)
1(42)
1(43)
1(44)
1(45)
1(46)
1(47)
1(48)
1(49)
1(50)
1(51)
1(52)
1(53)
1(54)
1(55)
1(56)
1(57)
1(58)
1(59)
1(60)
1(61)
1(62)
1(63)
1(64)
1(65)
1(66)
1(67)
1(68)
1(69)
1(70)
1(71)
1(72)
1(73)
1(74)
1(75)
1(76)
1(77)
1(78)
1(79)
1(80)
1(81)
1(82)
1(83)
1(84)
1(85)
1(86)
1(87)
1(88)
1(89)
1(90)
1(91)
1(92)
1(93)
1(94)
1(95)
1(96)
1(97)
1(98)
1(99)
1(100)
1(101)
1(102)
1(103)
1(104)
1(105)
1(106)
1(107)
1(108)
1(109)
1(110)
1(111)
1(112)
1(113)
1(114)
1(115)
1(116)
1(117)
1(118)
1(119)
1(120)
1(121)
1(122)
1(123)
1(124)
1(125)
1(126)
1(127)
)

// featurePointNormals

128
(
2(1 6)
2(0 59)
2(0 59)
2(1 6)
2(3 8)
2(2 61)
2(2 61)
2(3 8)
2(5 10)
2(4 63)
2(4 63)
2(5 10)
2(7 12)
2(7 12)
2(9 14)
2(9 14)
2(11 16)
2(11 16)
2(13 18)
2(13 18)
2(15 20)
2(15 20)
2(17 22)
2(17 22)
2(19 24)
2(19 24)
2(21 26)
2(21 26)
2(23 60)
2(23 60)
2(25 28)
2(25 28)
2(27 30)
2(27 30)
2(29 32)
2(29 32)
2(31 34)
2(31 34)
2(33 36)
2(33 36)
2(35 38)
2(35 38)
2(37 40)
2(37 40)
2(39 42)
2(39 42)
2(41 44)
2(41 44)
2(43 46)
2(43 46)
2(45 48)
2(45 48)
2(47 50)
2(47 50)
2(49 52)
2(49 52)
2(51 54)
2(51 54)
2(53 56)
2(53 56)
2(55 58)
2(55 58)
2(57 62)
2(57 62)
2(65 68)
2(64 125)
2(64 125)
2(65 68)
2(67 70)
2(66 127)
2(66 127)
2(67 70)
2(69 72)
2(69 72)
2(71 74)
2(71 74)
2(73 78)
2(73 78)
2(75 80)
2(75 80)
2(77 82)
2(76 103)
2(76 103)
2(77 82)
2(79 84)
2(79 84)
2(81 86)
2(81 86)
2(83 88)
2(83 88)
2(85 90)
2(85 90)
2(87 92)
2(87 92)
2(89 94)
2(89 94)
2(91 96)
2(91 96)
2(93 98)
2(93 98)
2(95 100)
2(95 100)
2(97 102)
2(97 102)
2(99 104)
2(99 104)
2(101 106)
2(101 106)
2(105 108)
2(105 108)
2(107 110)
2(107 110)
2(109 112)
2(109 112)
2(111 114)
2(111 114)
2(113 116)
2(113 116)
2(115 118)
2(115 118)
2(117 120)
2(117 120)
2(119 122)
2(119 122)
2(121 124)
2(121 124)
2(123 126)
2(123 126)
)

// featurePointEdges

128
(
4(92 33 128 134)
4(32 105 128 186)
4(92 32 129 187)
4(33 66 129 135)
4(64 35 130 136)
4(34 106 130 188)
4(64 34 131 189)
4(35 67 131 137)
4(65 37 132 138)
4(36 107 132 190)
4(65 36 133 191)
4(37 93 133 139)
4(66 38 134 140)
4(38 94 135 141)
4(67 39 136 142)
4(39 95 137 143)
4(93 40 138 144)
4(40 96 139 145)
4(94 41 140 146)
4(41 68 141 147)
4(95 42 142 148)
4(42 69 143 149)
4(96 43 144 150)
4(43 70 145 151)
4(68 44 146 152)
4(44 71 147 153)
4(69 45 148 154)
4(45 97 149 155)
4(70 46 150 188)
4(46 106 151 189)
4(71 47 152 156)
4(47 98 153 157)
4(97 48 154 158)
4(48 99 155 159)
4(98 49 156 160)
4(49 72 157 161)
4(99 50 158 162)
4(50 73 159 163)
4(72 51 160 164)
4(51 100 161 165)
4(73 52 162 166)
4(52 101 163 167)
4(100 53 164 168)
4(53 102 165 169)
4(101 54 166 170)
4(54 74 167 171)
4(102 55 168 172)
4(55 75 169 173)
4(74 56 170 174)
4(56 76 171 175)
4(75 57 172 176)
4(57 103 173 177)
4(76 58 174 178)
4(58 104 175 179)
4(103 59 176 180)
4(59 77 177 181)
4(104 60 178 182)
4(60 78 179 183)
4(77 61 180 184)
4(61 79 181 185)
4(78 62 182 186)
4(62 105 183 187)
4(79 63 184 190)
4(63 107 185 191)
4(108 1 192 196)
4(0 90 192 252)
4(108 0 193 253)
4(1 110 193 197)
4(109 3 194 198)
4(2 91 194 254)
4(109 2 195 255)
4(3 80 195 199)
4(110 4 196 200)
4(4 81 197 201)
4(80 5 198 202)
4(5 111 199 203)
4(81 6 200 206)
4(6 113 201 207)
4(111 7 202 208)
4(7 114 203 209)
4(112 9 204 210)
4(8 86 204 230)
4(112 8 205 231)
4(9 115 205 211)
4(113 10 206 212)
4(10 82 207 213)
4(114 11 208 214)
4(11 83 209 215)
4(115 12 210 216)
4(12 84 211 217)
4(82 13 212 218)
4(13 116 213 219)
4(83 14 214 220)
4(14 117 215 221)
4(84 15 216 222)
4(15 118 217 223)
4(116 16 218 224)
4(16 119 219 225)
4(117 17 220 226)
4(17 120 221 227)
4(118 18 222 228)
4(18 85 223 229)
4(119 19 224 230)
4(19 86 225 231)
4(120 20 226 232)
4(20 87 227 233)
4(85 21 228 234)
4(21 121 229 235)
4(87 22 232 236)
4(22 122 233 237)
4(121 23 234 238)
4(23 123 235 239)
4(122 24 236 240)
4(24 88 237 241)
4(123 25 238 242)
4(25 89 239 243)
4(88 26 240 244)
4(26 124 241 245)
4(89 27 242 246)
4(27 125 243 247)
4(124 28 244 248)
4(28 126 245 249)
4(125 29 246 250)
4(29 127 247 251)
4(126 30 248 252)
4(30 90 249 253)
4(127 31 250 254)
4(31 91 251 255)
)

// regionEdges

128
(
128
129
130
131
132
133
134
135
136
137
138
139
140
141
142
143
144
145
146
147
148
149
150
151
152
153
154
155
156
157
158
159
160
161
162
163
164
165
166
167
168
169
170
171
172
173
174
175
176
177
178
179
180
181
182
183
184
185
186
187
188
189
190
191
192
193
194
195
196
197
198
199
200
201
202
203
204
205
206
207
208
209
210
211
212
213
214
215
216
217
218
219
220
221
222
223
224
225
226
227
228
229
230
231
232
233
234
235
236
237
238
239
240
241
242
243
244
245
246
247
248
249
250
251
252
253
254
255
)



// ************************************************************************* //
