/*--------------------------------*- C++ -*----------------------------------*\
  =========                 |
  \\      /  F ield         | OpenFOAM: The Open Source CFD Toolbox
   \\    /   O peration     | Website:  https://openfoam.org
    \\  /    A nd           | Version:  7
     \\/     M anipulation  |
\*---------------------------------------------------------------------------*/
FoamFile
{
    version     2.0;
    format      ascii;
    class       extendedFeatureEdgeMesh;
    location    "constant/extendedFeatureEdgeMesh";
    object      wall.extendedFeatureEdgeMesh;
}
// * * * * * * * * * * * * * * * * * * * * * * * * * * * * * * * * * * * * * //

// points
8((-0.08 -0.08 -0.5) (-0.08 -0.08 0.5) (-0.08 0.08 0.5) (-0.08 0.08 -0.5) (0.08 0.08 0.5) (0.08 0.08 -0.5) (0.08 -0.08 0.5) (0.08 -0.08 -0.5))
// edges

16
(
(0 1)
(2 3)
(4 5)
(6 7)
(2 0)
(4 3)
(6 5)
(1 7)
(1 2)
(3 0)
(2 4)
(5 3)
(4 6)
(7 5)
(6 1)
(0 7)
)

// concaveStart mixedStart nonFeatureStart
0 0 8
// internalStart flatStart openStart multipleStart
4 4 8 16
// normals
8((-1 0 0) (-1 0 0) (0 1 0) (0 1 0) (1 0 -0) (1 0 0) (0 -1 0) (0 -1 0))
// normal volume types

8
(
0
0
0
0
0
0
0
0
)

// normalDirections

16
(
2(1 -1)
2(1 -1)
2(1 -1)
2(1 -1)
2(1 -1)
2(1 -1)
2(1 -1)
2(1 -1)
1(1)
1(1)
1(1)
1(1)
1(1)
1(1)
1(1)
1(1)
)

// edgeNormals

16
(
2(0 7)
2(1 2)
2(3 4)
2(5 6)
2(0 1)
2(2 3)
2(4 5)
2(6 7)
1(0)
1(1)
1(2)
1(3)
1(4)
1(5)
1(6)
1(7)
)

// featurePointNormals

8
(
2(0 7)
2(0 7)
2(1 2)
2(1 2)
2(3 4)
2(3 4)
2(5 6)
2(5 6)
)

// featurePointEdges

8
(
4(4 0 9 15)
4(0 7 8 14)
4(4 1 8 10)
4(1 5 9 11)
4(5 2 10 12)
4(2 6 11 13)
4(6 3 12 14)
4(3 7 13 15)
)

// regionEdges
8(8 9 10 11 12 13 14 15)


// ************************************************************************* //
