/*--------------------------------*- C++ -*----------------------------------*\
  =========                 |
  \\      /  F ield         | OpenFOAM: The Open Source CFD Toolbox
   \\    /   O peration     | Website:  https://openfoam.org
    \\  /    A nd           | Version:  7
     \\/     M anipulation  |
\*---------------------------------------------------------------------------*/
FoamFile
{
    version     2.0;
    format      ascii;
    class       polyBoundaryMesh;
    location    "0.01/polyMesh";
    object      boundary;
}
// * * * * * * * * * * * * * * * * * * * * * * * * * * * * * * * * * * * * * //

6
(
    inlet
    {
        type            wall;
        inGroups        List<word> 1(wall);
        nFaces          984;
        startFace       1055172;
    }
    nozzle_down
    {
        type            wall;
        inGroups        List<word> 1(wall);
        nFaces          7682;
        startFace       1056156;
    }
    nozzle_up
    {
        type            wall;
        inGroups        List<word> 1(wall);
        nFaces          3036;
        startFace       1063838;
    }
    wall
    {
        type            wall;
        inGroups        List<word> 1(wall);
        nFaces          80848;
        startFace       1066874;
    }
    topOutflow
    {
        type            wall;
        inGroups        List<word> 1(wall);
        nFaces          6780;
        startFace       1147722;
    }
    bottomOutflow
    {
        type            wall;
        inGroups        List<word> 1(wall);
        nFaces          4756;
        startFace       1154502;
    }
)

// ************************************************************************* //
