/*--------------------------------*- C++ -*----------------------------------*\
  =========                 |
  \\      /  F ield         | OpenFOAM: The Open Source CFD Toolbox
   \\    /   O peration     | Website:  https://openfoam.org
    \\  /    A nd           | Version:  7
     \\/     M anipulation  |
\*---------------------------------------------------------------------------*/
FoamFile
{
    version     2.0;
    format      ascii;
    class       featureEdgeMesh;
    location    "constant/triSurface";
    object      nozzle.eMesh;
}
// * * * * * * * * * * * * * * * * * * * * * * * * * * * * * * * * * * * * * //


// points:

128
(
(-0.6 -0 2)
(-0.588472 -0.117054 2)
(-0.588472 -0.117054 1)
(-0.6 -0 1)
(0.6 1e-06 1)
(0.588471 0.117054 1)
(0.554327 0.229611 1)
(0.498881 0.333343 1)
(0.424263 0.424264 1)
(0.333342 0.498882 1)
(0.22961 0.554327 1)
(0.117053 0.588471 1)
(0 0.6 1)
(-0.117054 0.588471 1)
(-0.22961 0.554327 1)
(-0.333342 0.498882 1)
(-0.424264 0.424264 1)
(-0.498883 0.333342 1)
(-0.554328 0.22961 1)
(-0.588472 0.117054 1)
(-0.5 -0 1)
(-0.490393 0.097545 1)
(-0.46194 0.191341 1)
(0.490393 0.097546 1)
(0.499999 1e-06 1)
(0.461939 0.191342 1)
(-0.415735 0.277785 1)
(0.415734 0.277786 1)
(-0.353554 0.353553 1)
(-0.277785 0.415734 1)
(0.353553 0.353553 1)
(0.277784 0.415735 1)
(-0.191343 0.461939 1)
(0.191341 0.461941 1)
(-0.097546 0.490393 1)
(0 0.5 1)
(0.097544 0.490393 1)
(0.498882 -0.333342 2)
(0.554328 -0.229609 2)
(0.554328 -0.229609 1)
(0.498882 -0.333342 1)
(-0.588472 0.117054 2)
(0.424265 -0.424264 2)
(0.424265 -0.424264 1)
(-0.554328 0.22961 2)
(0.333342 -0.498882 2)
(0.333342 -0.498882 1)
(-0.498883 0.333342 2)
(0.22961 -0.554327 2)
(0.22961 -0.554327 1)
(0.117053 0.588471 2)
(0 0.6 2)
(-0.424264 0.424264 2)
(0.117055 -0.588472 2)
(0.117055 -0.588472 1)
(0.22961 0.554327 2)
(-0.333342 0.498882 2)
(0 -0.6 2)
(0 -0.6 1)
(0.333342 0.498882 2)
(-0.22961 0.554327 2)
(-0.117054 -0.588472 2)
(-0.117054 -0.588472 1)
(0.424263 0.424264 2)
(-0.117054 0.588471 2)
(-0.22961 -0.554328 2)
(-0.22961 -0.554328 1)
(0.498881 0.333343 2)
(-0.333342 -0.498882 2)
(-0.333342 -0.498882 1)
(0.554327 0.229611 2)
(-0.424264 -0.424264 2)
(-0.424264 -0.424264 1)
(0.588471 0.117054 2)
(-0.498883 -0.333342 2)
(-0.498883 -0.333342 1)
(0.6 1e-06 2)
(-0.554328 -0.22961 2)
(-0.554328 -0.22961 1)
(0.588472 -0.117054 2)
(0.588472 -0.117054 1)
(0.490393 -0.097545 1)
(-0.490393 -0.097545 1)
(0.461939 -0.191341 1)
(-0.46194 -0.191342 1)
(-0.415735 -0.277786 1)
(0.415734 -0.277785 1)
(0.353553 -0.353553 1)
(-0.353554 -0.353553 1)
(0.277785 -0.415735 1)
(-0.277785 -0.415735 1)
(-0.191342 -0.46194 1)
(0.191341 -0.46194 1)
(0.097545 -0.490393 1)
(-0.097546 -0.490393 1)
(-0 -0.5 1)
(-0.277785 -0.415735 2)
(-0.353554 -0.353553 2)
(0.461939 0.191342 2)
(0.490393 0.097546 2)
(-0.415735 -0.277786 2)
(0.499999 1e-06 2)
(-0.46194 -0.191342 2)
(0.490393 -0.097545 2)
(-0.490393 -0.097545 2)
(0.461939 -0.191341 2)
(-0.5 -0 2)
(0.415734 -0.277785 2)
(-0.490393 0.097545 2)
(0.353553 -0.353553 2)
(-0.46194 0.191341 2)
(0.277786 -0.415735 2)
(-0.415735 0.277785 2)
(0.191341 -0.46194 2)
(0 0.5 2)
(0.097544 0.490393 2)
(-0.353554 0.353553 2)
(0.097545 -0.490393 2)
(0.191341 0.461941 2)
(-0.277785 0.415734 2)
(0 -0.5 2)
(0.277784 0.415735 2)
(-0.191342 0.461939 2)
(-0.097546 -0.490393 2)
(0.353553 0.353553 2)
(-0.097546 0.490393 2)
(-0.191342 -0.46194 2)
(0.415734 0.277786 2)
)


// edges:

320
(
(90 96)
(97 88)
(25 98)
(99 23)
(100 85)
(101 24)
(102 84)
(103 81)
(104 82)
(105 83)
(106 20)
(107 86)
(108 21)
(109 87)
(110 22)
(111 89)
(112 26)
(113 92)
(35 114)
(115 36)
(116 28)
(117 93)
(118 33)
(119 29)
(120 95)
(121 31)
(122 32)
(123 94)
(124 30)
(125 34)
(126 91)
(127 27)
(1 2)
(3 0)
(2 3)
(5 6)
(4 5)
(7 8)
(6 7)
(9 10)
(8 9)
(11 12)
(10 11)
(13 14)
(12 13)
(15 16)
(14 15)
(17 18)
(16 17)
(19 3)
(18 19)
(20 21)
(21 22)
(23 24)
(25 23)
(22 26)
(27 25)
(26 28)
(28 29)
(30 27)
(31 30)
(29 32)
(33 31)
(32 34)
(34 35)
(36 33)
(35 36)
(38 39)
(40 37)
(39 40)
(19 41)
(43 42)
(40 43)
(18 44)
(46 45)
(43 46)
(17 47)
(49 48)
(46 49)
(51 12)
(11 50)
(16 52)
(54 53)
(49 54)
(10 55)
(15 56)
(58 57)
(54 58)
(9 59)
(14 60)
(62 61)
(58 62)
(8 63)
(13 64)
(66 65)
(62 66)
(7 67)
(69 68)
(66 69)
(6 70)
(72 71)
(69 72)
(5 73)
(75 74)
(72 75)
(4 76)
(78 77)
(75 78)
(80 79)
(4 80)
(78 2)
(80 39)
(24 81)
(82 20)
(81 83)
(84 82)
(85 84)
(83 86)
(86 87)
(88 85)
(87 89)
(90 88)
(91 90)
(89 92)
(92 93)
(94 91)
(93 95)
(95 94)
(2 0)
(39 37)
(43 45)
(46 48)
(11 55)
(16 56)
(54 57)
(15 60)
(9 63)
(14 64)
(66 68)
(72 74)
(75 77)
(78 1)
(98 23)
(97 85)
(99 24)
(100 84)
(101 81)
(102 82)
(105 86)
(106 21)
(110 26)
(111 92)
(114 36)
(113 93)
(115 33)
(116 29)
(118 31)
(119 32)
(120 94)
(124 27)
(6 4)
(8 6)
(10 8)
(12 10)
(14 12)
(16 14)
(18 16)
(3 18)
(21 3)
(3 20)
(22 3)
(3 16)
(16 12)
(12 8)
(8 4)
(4 23)
(24 4)
(4 25)
(22 16)
(26 16)
(8 25)
(8 27)
(28 16)
(29 16)
(8 30)
(8 31)
(29 12)
(32 12)
(12 31)
(12 33)
(34 12)
(35 12)
(12 36)
(3 41)
(40 42)
(19 44)
(18 47)
(12 50)
(17 52)
(49 53)
(10 59)
(58 61)
(62 65)
(8 67)
(13 51)
(7 70)
(69 71)
(6 73)
(5 76)
(4 79)
(80 38)
(24 80)
(81 80)
(80 40)
(40 46)
(46 54)
(54 62)
(62 69)
(69 75)
(75 2)
(2 20)
(2 82)
(69 2)
(54 69)
(40 54)
(81 40)
(83 40)
(2 84)
(2 85)
(86 40)
(87 40)
(69 85)
(69 88)
(87 54)
(89 54)
(69 90)
(69 91)
(92 54)
(93 54)
(54 91)
(54 94)
(95 54)
(96 88)
(103 83)
(104 20)
(107 87)
(108 22)
(109 89)
(112 28)
(117 95)
(121 30)
(122 34)
(123 91)
(125 35)
(126 90)
(127 25)
(0 1)
(37 38)
(41 0)
(42 37)
(44 41)
(45 42)
(47 44)
(48 45)
(50 51)
(52 47)
(53 48)
(55 50)
(56 52)
(57 53)
(59 55)
(60 56)
(61 57)
(63 59)
(64 60)
(65 61)
(67 63)
(51 64)
(68 65)
(70 67)
(71 68)
(73 70)
(74 71)
(76 73)
(77 74)
(79 76)
(1 77)
(38 79)
(96 97)
(98 99)
(97 100)
(99 101)
(100 102)
(101 103)
(102 104)
(103 105)
(104 106)
(105 107)
(106 108)
(107 109)
(108 110)
(109 111)
(110 112)
(111 113)
(114 115)
(112 116)
(113 117)
(115 118)
(116 119)
(117 120)
(118 121)
(119 122)
(120 123)
(121 124)
(122 125)
(123 126)
(124 127)
(125 114)
(126 96)
(127 98)
)

// * * * * * * * * * * * * * * * * * * * * * * * * * * * * * * * * * * * * * //


// ************************************************************************* //
