/*--------------------------------*- C++ -*----------------------------------*\
  =========                 |
  \\      /  F ield         | OpenFOAM: The Open Source CFD Toolbox
   \\    /   O peration     | Website:  https://openfoam.org
    \\  /    A nd           | Version:  7
     \\/     M anipulation  |
\*---------------------------------------------------------------------------*/
FoamFile
{
    version     2.0;
    format      ascii;
    class       extendedFeatureEdgeMesh;
    location    "constant/extendedFeatureEdgeMesh";
    object      bottomOutflow.extendedFeatureEdgeMesh;
}
// * * * * * * * * * * * * * * * * * * * * * * * * * * * * * * * * * * * * * //

// points
4((-1 1 -2) (1 1 -2) (1 -1 -2) (-1 -1 -2))
// edges
5((2 0) (0 1) (1 2) (2 3) (3 0))
// concaveStart mixedStart nonFeatureStart
0 0 4
// internalStart flatStart openStart multipleStart
0 0 1 5
// normals
2{(0 0 -1)}
// normal volume types

2
(
0
0
)

// normalDirections

5
(
2(1 -1)
1(1)
1(1)
1(1)
1(1)
)

// edgeNormals

5
(
2(0 1)
1(0)
1(0)
1(1)
1(1)
)

// featurePointNormals

4
(
1(0)
1(0)
1(0)
1(1)
)

// featurePointEdges

4
(
3(0 1 4)
2(1 2)
3(0 2 3)
2(3 4)
)

// regionEdges
4(1 2 3 4)


// ************************************************************************* //
