/*--------------------------------*- C++ -*----------------------------------*\
  =========                 |
  \\      /  F ield         | OpenFOAM: The Open Source CFD Toolbox
   \\    /   O peration     | Website:  https://openfoam.org
    \\  /    A nd           | Version:  7
     \\/     M anipulation  |
\*---------------------------------------------------------------------------*/
FoamFile
{
    version     2.0;
    format      ascii;
    class       extendedFeatureEdgeMesh;
    location    "constant/extendedFeatureEdgeMesh";
    object      nozzle.extendedFeatureEdgeMesh;
}
// * * * * * * * * * * * * * * * * * * * * * * * * * * * * * * * * * * * * * //

// points

128
(
(-0.6 -0 2)
(-0.588472 -0.117054 2)
(-0.588472 -0.117054 1)
(-0.6 -0 1)
(0.6 1e-06 1)
(0.588471 0.117054 1)
(0.554327 0.229611 1)
(0.498881 0.333343 1)
(0.424263 0.424264 1)
(0.333342 0.498882 1)
(0.22961 0.554327 1)
(0.117053 0.588471 1)
(0 0.6 1)
(-0.117054 0.588471 1)
(-0.22961 0.554327 1)
(-0.333342 0.498882 1)
(-0.424264 0.424264 1)
(-0.498883 0.333342 1)
(-0.554328 0.22961 1)
(-0.588472 0.117054 1)
(-0.5 -0 1)
(-0.490393 0.097545 1)
(-0.46194 0.191341 1)
(0.490393 0.097546 1)
(0.499999 1e-06 1)
(0.461939 0.191342 1)
(-0.415735 0.277785 1)
(0.415734 0.277786 1)
(-0.353554 0.353553 1)
(-0.277785 0.415734 1)
(0.353553 0.353553 1)
(0.277784 0.415735 1)
(-0.191343 0.461939 1)
(0.191341 0.461941 1)
(-0.097546 0.490393 1)
(0 0.5 1)
(0.097544 0.490393 1)
(0.498882 -0.333342 2)
(0.554328 -0.229609 2)
(0.554328 -0.229609 1)
(0.498882 -0.333342 1)
(-0.588472 0.117054 2)
(0.424265 -0.424264 2)
(0.424265 -0.424264 1)
(-0.554328 0.22961 2)
(0.333342 -0.498882 2)
(0.333342 -0.498882 1)
(-0.498883 0.333342 2)
(0.22961 -0.554327 2)
(0.22961 -0.554327 1)
(0.117053 0.588471 2)
(0 0.6 2)
(-0.424264 0.424264 2)
(0.117055 -0.588472 2)
(0.117055 -0.588472 1)
(0.22961 0.554327 2)
(-0.333342 0.498882 2)
(0 -0.6 2)
(0 -0.6 1)
(0.333342 0.498882 2)
(-0.22961 0.554327 2)
(-0.117054 -0.588472 2)
(-0.117054 -0.588472 1)
(0.424263 0.424264 2)
(-0.117054 0.588471 2)
(-0.22961 -0.554328 2)
(-0.22961 -0.554328 1)
(0.498881 0.333343 2)
(-0.333342 -0.498882 2)
(-0.333342 -0.498882 1)
(0.554327 0.229611 2)
(-0.424264 -0.424264 2)
(-0.424264 -0.424264 1)
(0.588471 0.117054 2)
(-0.498883 -0.333342 2)
(-0.498883 -0.333342 1)
(0.6 1e-06 2)
(-0.554328 -0.22961 2)
(-0.554328 -0.22961 1)
(0.588472 -0.117054 2)
(0.588472 -0.117054 1)
(0.490393 -0.097545 1)
(-0.490393 -0.097545 1)
(0.461939 -0.191341 1)
(-0.46194 -0.191342 1)
(-0.415735 -0.277786 1)
(0.415734 -0.277785 1)
(0.353553 -0.353553 1)
(-0.353554 -0.353553 1)
(0.277785 -0.415735 1)
(-0.277785 -0.415735 1)
(-0.191342 -0.46194 1)
(0.191341 -0.46194 1)
(0.097545 -0.490393 1)
(-0.097546 -0.490393 1)
(-0 -0.5 1)
(-0.277785 -0.415735 2)
(-0.353554 -0.353553 2)
(0.461939 0.191342 2)
(0.490393 0.097546 2)
(-0.415735 -0.277786 2)
(0.499999 1e-06 2)
(-0.46194 -0.191342 2)
(0.490393 -0.097545 2)
(-0.490393 -0.097545 2)
(0.461939 -0.191341 2)
(-0.5 -0 2)
(0.415734 -0.277785 2)
(-0.490393 0.097545 2)
(0.353553 -0.353553 2)
(-0.46194 0.191341 2)
(0.277786 -0.415735 2)
(-0.415735 0.277785 2)
(0.191341 -0.46194 2)
(0 0.5 2)
(0.097544 0.490393 2)
(-0.353554 0.353553 2)
(0.097545 -0.490393 2)
(0.191341 0.461941 2)
(-0.277785 0.415734 2)
(0 -0.5 2)
(0.277784 0.415735 2)
(-0.191342 0.461939 2)
(-0.097546 -0.490393 2)
(0.353553 0.353553 2)
(-0.097546 0.490393 2)
(-0.191342 -0.46194 2)
(0.415734 0.277786 2)
)

// edges

320
(
(90 96)
(97 88)
(25 98)
(99 23)
(100 85)
(101 24)
(102 84)
(103 81)
(104 82)
(105 83)
(106 20)
(107 86)
(108 21)
(109 87)
(110 22)
(111 89)
(112 26)
(113 92)
(35 114)
(115 36)
(116 28)
(117 93)
(118 33)
(119 29)
(120 95)
(121 31)
(122 32)
(123 94)
(124 30)
(125 34)
(126 91)
(127 27)
(1 2)
(3 0)
(2 3)
(5 6)
(4 5)
(7 8)
(6 7)
(9 10)
(8 9)
(11 12)
(10 11)
(13 14)
(12 13)
(15 16)
(14 15)
(17 18)
(16 17)
(19 3)
(18 19)
(20 21)
(21 22)
(23 24)
(25 23)
(22 26)
(27 25)
(26 28)
(28 29)
(30 27)
(31 30)
(29 32)
(33 31)
(32 34)
(34 35)
(36 33)
(35 36)
(38 39)
(40 37)
(39 40)
(19 41)
(43 42)
(40 43)
(18 44)
(46 45)
(43 46)
(17 47)
(49 48)
(46 49)
(51 12)
(11 50)
(16 52)
(54 53)
(49 54)
(10 55)
(15 56)
(58 57)
(54 58)
(9 59)
(14 60)
(62 61)
(58 62)
(8 63)
(13 64)
(66 65)
(62 66)
(7 67)
(69 68)
(66 69)
(6 70)
(72 71)
(69 72)
(5 73)
(75 74)
(72 75)
(4 76)
(78 77)
(75 78)
(80 79)
(4 80)
(78 2)
(80 39)
(24 81)
(82 20)
(81 83)
(84 82)
(85 84)
(83 86)
(86 87)
(88 85)
(87 89)
(90 88)
(91 90)
(89 92)
(92 93)
(94 91)
(93 95)
(95 94)
(2 0)
(39 37)
(43 45)
(46 48)
(11 55)
(16 56)
(54 57)
(15 60)
(9 63)
(14 64)
(66 68)
(72 74)
(75 77)
(78 1)
(98 23)
(97 85)
(99 24)
(100 84)
(101 81)
(102 82)
(105 86)
(106 21)
(110 26)
(111 92)
(114 36)
(113 93)
(115 33)
(116 29)
(118 31)
(119 32)
(120 94)
(124 27)
(6 4)
(8 6)
(10 8)
(12 10)
(14 12)
(16 14)
(18 16)
(3 18)
(21 3)
(3 20)
(22 3)
(3 16)
(16 12)
(12 8)
(8 4)
(4 23)
(24 4)
(4 25)
(22 16)
(26 16)
(8 25)
(8 27)
(28 16)
(29 16)
(8 30)
(8 31)
(29 12)
(32 12)
(12 31)
(12 33)
(34 12)
(35 12)
(12 36)
(3 41)
(40 42)
(19 44)
(18 47)
(12 50)
(17 52)
(49 53)
(10 59)
(58 61)
(62 65)
(8 67)
(13 51)
(7 70)
(69 71)
(6 73)
(5 76)
(4 79)
(80 38)
(24 80)
(81 80)
(80 40)
(40 46)
(46 54)
(54 62)
(62 69)
(69 75)
(75 2)
(2 20)
(2 82)
(69 2)
(54 69)
(40 54)
(81 40)
(83 40)
(2 84)
(2 85)
(86 40)
(87 40)
(69 85)
(69 88)
(87 54)
(89 54)
(69 90)
(69 91)
(92 54)
(93 54)
(54 91)
(54 94)
(95 54)
(96 88)
(103 83)
(104 20)
(107 87)
(108 22)
(109 89)
(112 28)
(117 95)
(121 30)
(122 34)
(123 91)
(125 35)
(126 90)
(127 25)
(0 1)
(37 38)
(41 0)
(42 37)
(44 41)
(45 42)
(47 44)
(48 45)
(50 51)
(52 47)
(53 48)
(55 50)
(56 52)
(57 53)
(59 55)
(60 56)
(61 57)
(63 59)
(64 60)
(65 61)
(67 63)
(51 64)
(68 65)
(70 67)
(71 68)
(73 70)
(74 71)
(76 73)
(77 74)
(79 76)
(1 77)
(38 79)
(96 97)
(98 99)
(97 100)
(99 101)
(100 102)
(101 103)
(102 104)
(103 105)
(104 106)
(105 107)
(106 108)
(107 109)
(108 110)
(109 111)
(110 112)
(111 113)
(114 115)
(112 116)
(113 117)
(115 118)
(116 119)
(117 120)
(118 121)
(119 122)
(120 123)
(121 124)
(122 125)
(123 126)
(124 127)
(125 114)
(126 96)
(127 98)
)

// concaveStart mixedStart nonFeatureStart
0 0 128
// internalStart flatStart openStart multipleStart
32 128 256 320
// normals

192
(
(0.995185 0.0980104 0)
(-0.881923 0.471394 0)
(0.995185 -0.0980104 0)
(-0.773014 0.634389 0)
(0.956939 -0.290289 0)
(-0.63439 0.773013 0)
(0.881924 -0.471391 0)
(-0.471391 0.881924 0)
(-0.0980198 -0.995184 0)
(0.773005 -0.634399 0)
(-0.290299 0.956936 0)
(-0.290286 -0.95694 0)
(0.634394 -0.77301 0)
(-0.0980096 0.995185 0)
(-0.471391 -0.881924 0)
(0.471391 -0.881924 0)
(0.0980104 0.995185 0)
(-0.634399 -0.773006 0)
(0.290289 -0.956939 0)
(0.290289 0.956939 0)
(-0.773006 -0.634399 0)
(0.098019 -0.995185 0)
(0.471398 0.881921 0)
(-0.881921 -0.471397 0)
(0.634394 0.77301 0)
(-0.95694 -0.290286 0)
(0.773005 0.634399 0)
(-0.995184 -0.0980198 0)
(0.881924 0.471391 0)
(-0.995185 0.0980096 0)
(0.956939 0.290289 0)
(-0.956938 0.290291 0)
(-0.634393 -0.77301 0)
(0.956937 0.290297 -0)
(-0.773007 -0.634397 0)
(0.995186 0.0980033 -0)
(-0.881923 -0.471394 0)
(0.995186 -0.0980023 0)
(-0.95694 -0.290285 0)
(0.956937 -0.290297 0)
(-0.995185 -0.0980135 0)
(0.881922 -0.471395 0)
(-0.995185 0.0980135 0)
(0.773011 -0.634392 0)
(-0.956939 0.290288 0)
(0.634403 -0.773002 -6.23921e-07)
(-0.881923 0.471394 0)
(0.47139 -0.881925 0)
(0.0980145 0.995185 -0)
(-0.773011 0.634392 0)
(0.290288 -0.956939 0)
(0.290275 0.956943 -0)
(-0.634387 0.773016 0)
(0.0980135 -0.995185 0)
(0.471407 0.881916 -0)
(-0.471399 0.88192 4.70635e-07)
(-0.0980125 -0.995185 0)
(0.634393 0.77301 -0)
(-0.290297 0.956937 0)
(-0.290288 -0.956939 0)
(0.773007 0.634397 -0)
(-0.0980125 0.995185 0)
(-0.471399 -0.88192 0)
(0.881922 0.471395 -0)
(0.995185 0.0980104 0)
(-0.881923 0.471394 0)
(-0.63439 0.773013 0)
(-0.471391 0.881924 0)
(-0.290286 -0.95694 -0)
(0.634394 -0.77301 0)
(-0.0980096 0.995185 0)
(0.471391 -0.881924 0)
(-0.634399 -0.773006 -0)
(0.290289 -0.956939 0)
(0.471398 0.881921 0)
(0.773005 0.634399 0)
(0.881924 0.471391 0)
(0.956939 0.290289 0)
(-0.634393 -0.77301 0)
(-0.773007 -0.634397 0)
(0.956937 0.290297 0)
(0.995186 0.0980033 0)
(-0.881923 -0.471394 0)
(0.995186 -0.0980023 0)
(-0.95694 -0.290285 0)
(0.956937 -0.290297 0)
(-0.995185 -0.0980135 0)
(0.881922 -0.471395 0)
(-0.995185 0.0980135 0)
(0.773011 -0.634392 0)
(-0.956939 0.290288 0)
(0.634398 -0.773006 0)
(-0.881923 0.471394 0)
(0.471394 -0.881923 -4.63606e-07)
(-0.773011 0.634392 0)
(0.290288 -0.956939 0)
(0.0980145 0.995185 0)
(0.290275 0.956943 0)
(-0.634387 0.773016 0)
(0.0980135 -0.995185 0)
(0.471407 0.881916 0)
(-0.471403 0.881918 0)
(-0.0980125 -0.995185 0)
(0.634393 0.77301 0)
(-0.290294 0.956938 2.89823e-07)
(-0.290288 -0.956939 0)
(0.773007 0.634397 0)
(-0.0980125 0.995185 0)
(-0.471399 -0.88192 0)
(0.881922 0.471395 0)
(0 0 1)
(0 0 1)
(0 0 1)
(-0.95694 -0.290286 -0)
(-0.995184 -0.0980198 -0)
(0 0 1)
(-0.773006 -0.634399 -0)
(-0.881921 -0.471397 -0)
(0 0 1)
(0 0 1)
(-0.471391 -0.881924 -0)
(0 0 1)
(-0.0980198 -0.995184 -0)
(0 0 1)
(0 0 1)
(0.098019 -0.995185 0)
(0 0 1)
(0 0 1)
(0 0 1)
(0.881924 -0.471391 0)
(0.773005 -0.634399 0)
(0 0 1)
(0.995185 -0.0980104 0)
(0.956939 -0.290289 0)
(0 0 1)
(0 0 1)
(0 0 1)
(0 0 1)
(0 -0 1)
(-0 -0 1)
(0 0 1)
(0 0 1)
(0 -0 1)
(0 0 1)
(0 0 1)
(-0 0 1)
(-0 0 1)
(0 0 1)
(-0 0 1)
(0 0 1)
(0 0 1)
(-0 -0 1)
(-0 -0 1)
(0 0 1)
(0 0 1)
(-0.956938 0.290291 0)
(0 0 1)
(-0.773014 0.634389 0)
(0 0 1)
(0 0 1)
(-0.290299 0.956936 0)
(-0 0 1)
(0.0980104 0.995185 0)
(0.290289 0.956939 0)
(0 0 1)
(0.634394 0.77301 0)
(0 0 1)
(0 0 1)
(-0.995185 0.0980096 0)
(0 0 1)
(0 -0 1)
(0 0 1)
(0 0 1)
(0 0 1)
(0 0 1)
(0 0 1)
(0 0 1)
(0 0 1)
(0 0 1)
(0 0 1)
(0 0 1)
(0 0 1)
(0 0 1)
(0 0 1)
(0 0 1)
(0 0 1)
(0 0 1)
(0 0 1)
(0 -0 1)
(0 0 1)
(0 0 1)
(0 0 1)
)

// normal volume types

192
(
0
0
0
0
0
0
0
0
0
0
0
0
0
0
0
0
0
0
0
0
0
0
0
0
0
0
0
0
0
0
0
0
0
0
0
0
0
0
0
0
0
0
0
0
0
0
0
0
0
0
0
0
0
0
0
0
0
0
0
0
0
0
0
0
0
0
0
0
0
0
0
0
0
0
0
0
0
0
0
0
0
0
0
0
0
0
0
0
0
0
0
0
0
0
0
0
0
0
0
0
0
0
0
0
0
0
0
0
0
0
0
0
0
0
0
0
0
0
0
0
0
0
0
0
0
0
0
0
0
0
0
0
0
0
0
0
0
0
0
0
0
0
0
0
0
0
0
0
0
0
0
0
0
0
0
0
0
0
0
0
0
0
0
0
0
0
0
0
0
0
0
0
0
0
0
0
0
0
0
0
0
0
0
0
0
0
0
0
0
0
0
0
)

// normalDirections

320
(
2(1 -1)
2(1 -1)
2(1 -1)
2(1 -1)
2(1 -1)
2(1 -1)
2(1 -1)
2(1 -1)
2(1 -1)
2(1 -1)
2(1 -1)
2(1 -1)
2(1 -1)
2(1 -1)
2(1 -1)
2(1 -1)
2(1 -1)
2(1 -1)
2(1 -1)
2(1 -1)
2(1 -1)
2(1 -1)
2(1 -1)
2(1 -1)
2(1 -1)
2(1 -1)
2(1 -1)
2(1 -1)
2(1 -1)
2(1 -1)
2(1 -1)
2(1 -1)
2(1 -1)
2(1 -1)
2(1 -1)
2(1 -1)
2(1 -1)
2(1 -1)
2(1 -1)
2(1 -1)
2(1 -1)
2(1 -1)
2(1 -1)
2(1 -1)
2(1 -1)
2(1 -1)
2(1 -1)
2(1 -1)
2(1 -1)
2(1 -1)
2(1 -1)
2(1 -1)
2(1 -1)
2(1 -1)
2(1 -1)
2(1 -1)
2(1 -1)
2(1 -1)
2(1 -1)
2(1 -1)
2(1 -1)
2(1 -1)
2(1 -1)
2(1 -1)
2(1 -1)
2(1 -1)
2(1 -1)
2(1 -1)
2(1 -1)
2(1 -1)
2(1 -1)
2(1 -1)
2(1 -1)
2(1 -1)
2(1 -1)
2(1 -1)
2(1 -1)
2(1 -1)
2(1 -1)
2(1 -1)
2(1 -1)
2(1 -1)
2(1 -1)
2(1 -1)
2(1 -1)
2(1 -1)
2(1 -1)
2(1 -1)
2(1 -1)
2(1 -1)
2(1 -1)
2(1 -1)
2(1 -1)
2(1 -1)
2(1 -1)
2(1 -1)
2(1 -1)
2(1 -1)
2(1 -1)
2(1 -1)
2(1 -1)
2(1 -1)
2(1 -1)
2(1 -1)
2(1 -1)
2(1 -1)
2(1 -1)
2(1 -1)
2(1 -1)
2(1 -1)
2(1 -1)
2(1 -1)
2(1 -1)
2(1 -1)
2(1 -1)
2(1 -1)
2(1 -1)
2(1 -1)
2(1 -1)
2(1 -1)
2(1 -1)
2(1 -1)
2(1 -1)
2(1 -1)
2(1 -1)
2(1 -1)
2(1 -1)
2(1 -1)
2(1 -1)
2(1 -1)
2(1 -1)
2(1 -1)
2(1 -1)
2(1 -1)
2(1 -1)
2(1 -1)
2(1 -1)
2(1 -1)
2(1 -1)
2(1 -1)
2(1 -1)
2(1 -1)
2(1 -1)
2(1 -1)
2(1 -1)
2(1 -1)
2(1 -1)
2(1 -1)
2(1 -1)
2(1 -1)
2(1 -1)
2(1 -1)
2(1 -1)
2(1 -1)
2(1 -1)
2(1 -1)
2(1 -1)
2(1 -1)
2(1 -1)
2(1 -1)
2(1 -1)
2(1 -1)
2(1 -1)
2(1 -1)
2(1 -1)
2(1 -1)
2(1 -1)
2(1 -1)
2(1 -1)
2(1 -1)
2(1 -1)
2(1 -1)
2(1 -1)
2(1 -1)
2(1 -1)
2(1 -1)
2(1 -1)
2(1 -1)
2(1 -1)
2(1 -1)
2(1 -1)
2(1 -1)
2(1 -1)
2(1 -1)
2(1 -1)
2(1 -1)
2(1 -1)
2(1 -1)
2(1 -1)
2(1 -1)
2(1 -1)
2(1 -1)
2(1 -1)
2(1 -1)
2(1 -1)
2(1 -1)
2(1 -1)
2(1 -1)
2(1 -1)
2(1 -1)
2(1 -1)
2(1 -1)
2(1 -1)
2(1 -1)
2(1 -1)
2(1 -1)
2(1 -1)
2(1 -1)
2(1 -1)
2(1 -1)
2(1 -1)
2(1 -1)
2(1 -1)
2(1 -1)
2(1 -1)
2(1 -1)
2(1 -1)
2(1 -1)
2(1 -1)
2(1 -1)
2(1 -1)
2(1 -1)
2(1 -1)
2(1 -1)
2(1 -1)
2(1 -1)
2(1 -1)
2(1 -1)
2(1 -1)
2(1 -1)
2(1 -1)
2(1 -1)
2(1 -1)
2(1 -1)
2(1 -1)
2(1 -1)
2(1 -1)
2(1 -1)
2(1 -1)
2(1 -1)
2(1 -1)
2(1 -1)
2(1 -1)
2(1 -1)
2(1 -1)
2(1 -1)
2(1 -1)
2(1 -1)
2(1 -1)
2(1 -1)
2(1 -1)
2(1 -1)
2(1 -1)
2(1 -1)
2(1 -1)
2(1 -1)
1(1)
1(1)
1(1)
1(1)
1(1)
1(1)
1(1)
1(1)
1(1)
1(1)
1(1)
1(1)
1(1)
1(1)
1(1)
1(1)
1(1)
1(1)
1(1)
1(1)
1(1)
1(1)
1(1)
1(1)
1(1)
1(1)
1(1)
1(1)
1(1)
1(1)
1(1)
1(1)
1(1)
1(1)
1(1)
1(1)
1(1)
1(1)
1(1)
1(1)
1(1)
1(1)
1(1)
1(1)
1(1)
1(1)
1(1)
1(1)
1(1)
1(1)
1(1)
1(1)
1(1)
1(1)
1(1)
1(1)
1(1)
1(1)
1(1)
1(1)
1(1)
1(1)
1(1)
1(1)
)

// edgeNormals

320
(
2(78 62)
2(32 79)
2(80 63)
2(33 81)
2(34 82)
2(35 83)
2(36 84)
2(37 85)
2(38 86)
2(39 87)
2(40 88)
2(41 89)
2(42 90)
2(43 91)
2(44 92)
2(45 93)
2(46 94)
2(47 95)
2(96 61)
2(48 97)
2(49 98)
2(50 99)
2(51 100)
2(52 101)
2(53 102)
2(54 103)
2(55 104)
2(56 105)
2(57 106)
2(58 107)
2(59 108)
2(60 109)
2(0 77)
2(64 2)
2(64 110)
2(111 113)
2(111 114)
2(115 116)
2(115 117)
2(118 120)
2(118 72)
2(121 122)
2(121 68)
2(123 73)
2(123 125)
2(126 69)
2(126 71)
2(127 129)
2(127 130)
2(131 132)
2(131 133)
2(134 88)
2(135 90)
2(140 81)
2(141 80)
2(143 92)
2(145 109)
2(144 94)
2(147 98)
2(146 106)
2(148 103)
2(149 101)
2(151 100)
2(150 104)
2(153 107)
2(152 97)
2(154 96)
2(1 155)
2(65 3)
2(65 156)
2(132 4)
2(157 5)
2(157 158)
2(133 6)
2(66 7)
2(66 158)
2(129 9)
2(67 10)
2(67 159)
2(8 125)
2(122 11)
2(130 12)
2(160 13)
2(160 159)
2(68 14)
2(69 15)
2(70 16)
2(70 161)
2(120 17)
2(71 18)
2(162 19)
2(162 161)
2(72 20)
2(73 21)
2(163 22)
2(163 164)
2(116 23)
2(74 24)
2(74 164)
2(117 25)
2(165 26)
2(165 166)
2(113 27)
2(75 28)
2(75 166)
2(114 29)
2(76 30)
2(76 167)
2(168 31)
2(168 142)
2(77 167)
2(155 156)
2(169 83)
2(174 86)
2(179 85)
2(175 84)
2(181 82)
2(180 87)
2(182 89)
2(183 79)
2(185 91)
2(184 78)
2(187 108)
2(186 93)
2(188 95)
2(190 105)
2(189 99)
2(191 102)
2(0 64)
2(1 65)
2(5 66)
2(7 67)
2(11 68)
2(12 69)
2(13 70)
2(15 71)
2(17 72)
2(18 73)
2(22 74)
2(26 75)
2(28 76)
2(30 77)
2(80 33)
2(79 34)
2(81 35)
2(82 36)
2(83 37)
2(84 38)
2(87 41)
2(88 42)
2(92 46)
2(93 47)
2(96 48)
2(95 50)
2(97 51)
2(98 52)
2(100 54)
2(101 55)
2(102 56)
2(106 60)
2(111 112)
2(115 112)
2(118 119)
2(121 119)
2(123 124)
2(126 124)
2(127 128)
2(131 128)
2(134 135)
2(134 110)
2(135 136)
2(128 136)
2(124 137)
2(119 138)
2(112 139)
2(140 141)
2(140 142)
2(141 139)
2(136 143)
2(143 144)
2(139 145)
2(145 146)
2(144 147)
2(147 137)
2(146 148)
2(148 138)
2(137 149)
2(149 150)
2(138 151)
2(151 152)
2(150 153)
2(153 154)
2(152 154)
2(2 132)
2(3 157)
2(4 133)
2(6 129)
2(8 122)
2(9 130)
2(10 160)
2(14 120)
2(16 162)
2(19 163)
2(20 116)
2(21 125)
2(23 117)
2(24 165)
2(25 113)
2(27 114)
2(29 168)
2(31 155)
2(142 169)
2(169 170)
2(156 170)
2(158 171)
2(159 171)
2(161 172)
2(164 172)
2(166 173)
2(167 173)
2(110 174)
2(174 175)
2(173 176)
2(172 177)
2(171 178)
2(170 179)
2(179 180)
2(175 181)
2(181 176)
2(180 182)
2(182 178)
2(176 183)
2(183 184)
2(178 185)
2(185 186)
2(184 187)
2(187 177)
2(186 188)
2(188 189)
2(177 190)
2(190 191)
2(189 191)
2(78 32)
2(85 39)
2(86 40)
2(89 43)
2(90 44)
2(91 45)
2(94 49)
2(99 53)
2(103 57)
2(104 58)
2(105 59)
2(107 61)
2(108 62)
2(109 63)
1(0)
1(1)
1(2)
1(3)
1(4)
1(5)
1(6)
1(7)
1(8)
1(9)
1(10)
1(11)
1(12)
1(13)
1(14)
1(15)
1(16)
1(17)
1(18)
1(19)
1(20)
1(21)
1(22)
1(23)
1(24)
1(25)
1(26)
1(27)
1(28)
1(29)
1(30)
1(31)
1(32)
1(33)
1(34)
1(35)
1(36)
1(37)
1(38)
1(39)
1(40)
1(41)
1(42)
1(43)
1(44)
1(45)
1(46)
1(47)
1(48)
1(49)
1(50)
1(51)
1(52)
1(53)
1(54)
1(55)
1(56)
1(57)
1(58)
1(59)
1(60)
1(61)
1(62)
1(63)
)

// featurePointNormals

128
(
2(64 2)
2(0 77)
3(0 77 110)
3(64 2 110)
3(111 114 29)
3(111 113 114)
3(111 113 117)
3(115 116 117)
3(115 116 72)
3(118 120 72)
3(118 120 68)
3(121 122 68)
3(121 122 125)
3(123 73 125)
3(123 73 71)
3(126 69 71)
3(126 69 130)
3(127 129 130)
3(127 129 133)
3(131 132 133)
3(40 88 134)
3(42 90 134)
3(44 92 135)
3(33 81 140)
3(35 83 140)
3(80 63 141)
3(46 94 143)
3(60 109 145)
3(49 98 144)
3(52 101 147)
3(57 106 146)
3(54 103 148)
3(55 104 149)
3(51 100 151)
3(58 107 150)
3(96 61 153)
3(48 97 152)
2(65 3)
2(1 155)
3(1 155 156)
3(65 3 156)
2(132 4)
2(157 5)
3(157 5 158)
2(133 6)
2(66 7)
3(66 7 158)
2(129 9)
2(67 10)
3(67 10 159)
2(122 11)
2(8 125)
2(130 12)
2(160 13)
3(160 13 159)
2(68 14)
2(69 15)
2(70 16)
3(70 16 161)
2(120 17)
2(71 18)
2(162 19)
3(162 19 161)
2(72 20)
2(73 21)
2(163 22)
3(163 22 164)
2(116 23)
2(74 24)
3(74 24 164)
2(117 25)
2(165 26)
3(165 26 166)
2(113 27)
2(75 28)
3(75 28 166)
2(114 29)
2(76 30)
3(76 30 167)
2(168 31)
3(168 31 142)
3(37 85 169)
3(38 86 174)
3(39 87 179)
3(36 84 175)
3(34 82 181)
3(41 89 180)
3(43 91 182)
3(32 79 183)
3(45 93 185)
3(78 62 184)
3(59 108 187)
3(47 95 186)
3(50 99 188)
3(56 105 190)
3(53 102 189)
2(78 62)
2(32 79)
2(80 63)
2(33 81)
2(34 82)
2(35 83)
2(36 84)
2(37 85)
2(38 86)
2(39 87)
2(40 88)
2(41 89)
2(42 90)
2(43 91)
2(44 92)
2(45 93)
2(46 94)
2(47 95)
2(96 61)
2(48 97)
2(49 98)
2(50 99)
2(51 100)
2(52 101)
2(53 102)
2(54 103)
2(55 104)
2(56 105)
2(57 106)
2(58 107)
2(59 108)
2(60 109)
)

// featurePointEdges

128
(
4(128 33 256 258)
4(32 141 256 286)
10(128 34 220 221 227 228 222 219 110 32)
9(33 193 49 167 171 170 168 169 34)
9(160 174 177 175 176 109 209 105 36)
4(35 102 208 36)
6(160 161 38 99 207 35)
4(37 96 205 38)

12
(
161
174
180
181
184
185
173
162
40
92
203
37
)

4(39 88 136 40)
6(162 163 42 84 200 39)
4(41 80 132 42)

15
(
163
173
188
189
192
191
190
187
186
172
164
44
79
197
41
)

4(43 93 204 44)
6(164 165 46 89 137 43)
4(45 85 135 46)

12
(
165
172
183
182
179
178
171
166
48
81
133
45
)

4(47 76 198 48)
6(166 167 50 73 196 47)
4(49 70 195 50)
6(169 220 113 244 10 51)
5(168 52 12 149 51)
6(170 178 55 14 246 52)
5(175 54 142 3 53)
6(176 211 112 5 144 53)
6(177 180 56 255 2 54)
5(179 57 16 150 55)
5(181 59 159 31 56)
5(182 58 20 248 57)
6(183 186 61 23 155 58)
5(184 60 250 28 59)
6(185 188 62 156 25 60)
5(187 63 26 157 61)
5(189 65 154 22 62)
5(190 64 29 251 63)
5(191 66 18 253 64)
5(192 66 152 19 65)
4(129 68 257 259)
4(67 210 257 287)
4(129 69 111 67)

11
(
68
194
72
214
224
230
229
226
225
213
69
)

4(193 70 258 260)
4(194 71 259 261)
4(71 130 75 72)
4(195 73 260 262)
4(130 74 261 263)
6(74 131 78 215 214 75)
4(196 76 262 265)
4(131 77 263 266)
4(77 199 83 78)
4(197 80 264 267)
4(79 204 264 277)
4(198 81 265 268)
4(199 82 266 269)

15
(
82
134
87
216
223
239
240
241
238
237
234
233
224
215
83
)

4(132 84 267 270)
4(133 85 268 271)
4(134 86 269 272)
4(86 201 91 87)
4(200 88 270 273)
4(135 89 271 274)
4(201 90 272 275)
6(90 202 95 217 216 91)
4(136 92 273 276)
4(137 93 274 277)
4(202 94 275 278)
4(94 138 98 95)
4(203 96 276 279)
4(138 97 278 280)

12
(
97
206
101
218
222
231
232
235
236
223
217
98
)

4(205 99 279 281)
4(206 100 280 282)
4(100 139 104 101)
4(207 102 281 283)
4(139 103 282 284)
6(103 140 107 219 218 104)
4(208 105 283 285)
4(140 106 284 286)
4(106 141 110 107)
4(209 108 285 287)
7(108 210 111 213 212 211 109)
6(212 225 114 7 146 112)
5(221 115 147 8 113)
5(226 117 9 243 114)
5(227 116 145 6 115)
6(228 231 119 143 4 116)
5(229 118 11 148 117)
6(230 233 120 13 245 118)
5(232 121 242 1 119)
5(234 123 15 247 120)
5(235 122 254 0 121)
6(236 239 125 252 30 122)
5(237 124 17 151 123)
5(238 126 21 153 124)
5(240 127 158 27 125)
5(241 127 24 249 126)
4(242 0 288 318)
4(1 143 288 290)
4(142 2 289 319)
4(3 144 289 291)
4(4 145 290 292)
4(5 146 291 293)
4(6 147 292 294)
4(7 243 293 295)
4(8 244 294 296)
4(9 148 295 297)
4(10 149 296 298)
4(11 245 297 299)
4(12 246 298 300)
4(13 247 299 301)
4(14 150 300 302)
4(15 151 301 303)
4(16 248 302 305)
4(17 153 303 306)
4(152 18 304 317)
4(19 154 304 307)
4(20 155 305 308)
4(21 249 306 309)
4(22 156 307 310)
4(23 157 308 311)
4(24 158 309 312)
4(25 250 310 313)
4(26 251 311 314)
4(27 252 312 315)
4(28 159 313 316)
4(29 253 314 317)
4(30 254 315 318)
4(31 255 316 319)
)

// regionEdges

64
(
256
257
258
259
260
261
262
263
264
265
266
267
268
269
270
271
272
273
274
275
276
277
278
279
280
281
282
283
284
285
286
287
288
289
290
291
292
293
294
295
296
297
298
299
300
301
302
303
304
305
306
307
308
309
310
311
312
313
314
315
316
317
318
319
)



// ************************************************************************* //
