/*--------------------------------*- C++ -*----------------------------------*\
  =========                 |
  \\      /  F ield         | OpenFOAM: The Open Source CFD Toolbox
   \\    /   O peration     | Website:  https://openfoam.org
    \\  /    A nd           | Version:  7
     \\/     M anipulation  |
\*---------------------------------------------------------------------------*/
FoamFile
{
    version     2.0;
    format      ascii;
    class       extendedFeatureEdgeMesh;
    location    "constant/extendedFeatureEdgeMesh";
    object      topOutflow.extendedFeatureEdgeMesh;
}
// * * * * * * * * * * * * * * * * * * * * * * * * * * * * * * * * * * * * * //

// points

36
(
(1 -1 2)
(1 1 2)
(0.6 1e-06 2)
(0.588472 -0.117054 2)
(-0.588472 -0.117054 2)
(-0.6 -0 2)
(-1 -1 2)
(-0.554328 -0.22961 2)
(0.554328 -0.229609 2)
(0.498882 -0.333342 2)
(-0.498883 -0.333342 2)
(-0.424264 -0.424264 2)
(0.424265 -0.424264 2)
(0.333342 -0.498882 2)
(-0.333342 -0.498882 2)
(-0.22961 -0.554328 2)
(0.22961 -0.554327 2)
(0.117055 -0.588472 2)
(-0.117054 -0.588472 2)
(0 -0.6 2)
(-1 1 2)
(-0.588472 0.117054 2)
(0.588471 0.117054 2)
(0.554327 0.229611 2)
(-0.554328 0.22961 2)
(-0.498883 0.333342 2)
(0.498881 0.333343 2)
(0.424263 0.424264 2)
(-0.424264 0.424264 2)
(-0.333342 0.498882 2)
(0.333342 0.498882 2)
(0.22961 0.554327 2)
(-0.22961 0.554327 2)
(-0.117054 0.588471 2)
(0.117053 0.588471 2)
(0 0.6 2)
)

// edges

72
(
(2 0)
(1 2)
(3 0)
(6 4)
(5 6)
(6 7)
(8 0)
(9 0)
(6 10)
(6 11)
(12 0)
(13 0)
(6 14)
(6 15)
(16 0)
(17 0)
(0 15)
(0 18)
(19 0)
(5 20)
(21 20)
(1 22)
(1 23)
(24 20)
(25 20)
(1 26)
(1 27)
(28 20)
(29 20)
(1 30)
(1 31)
(32 20)
(33 20)
(20 31)
(20 34)
(35 20)
(0 1)
(2 3)
(4 5)
(7 4)
(3 8)
(8 9)
(10 7)
(11 10)
(9 12)
(12 13)
(14 11)
(15 14)
(13 16)
(16 17)
(6 0)
(18 15)
(17 19)
(19 18)
(20 6)
(5 21)
(22 2)
(23 22)
(21 24)
(24 25)
(26 23)
(27 26)
(25 28)
(28 29)
(30 27)
(31 30)
(29 32)
(32 33)
(1 20)
(34 31)
(33 35)
(35 34)
)

// concaveStart mixedStart nonFeatureStart
0 0 36
// internalStart flatStart openStart multipleStart
0 0 36 72
// normals
36{(0 -0 1)}
// normal volume types

36
(
0
0
0
0
0
0
0
0
0
0
0
0
0
0
0
0
0
0
0
0
0
0
0
0
0
0
0
0
0
0
0
0
0
0
0
0
)

// normalDirections

72
(
2(1 -1)
2(1 -1)
2(1 -1)
2(1 -1)
2(1 -1)
2(1 -1)
2(1 -1)
2(1 -1)
2(1 -1)
2(1 -1)
2(1 -1)
2(1 -1)
2(1 -1)
2(1 -1)
2(1 -1)
2(1 -1)
2(1 -1)
2(1 -1)
2(1 -1)
2(1 -1)
2(1 -1)
2(1 -1)
2(1 -1)
2(1 -1)
2(1 -1)
2(1 -1)
2(1 -1)
2(1 -1)
2(1 -1)
2(1 -1)
2(1 -1)
2(1 -1)
2(1 -1)
2(1 -1)
2(1 -1)
2(1 -1)
1(1)
1(1)
1(1)
1(1)
1(1)
1(1)
1(1)
1(1)
1(1)
1(1)
1(1)
1(1)
1(1)
1(1)
1(1)
1(1)
1(1)
1(1)
1(1)
1(1)
1(1)
1(1)
1(1)
1(1)
1(1)
1(1)
1(1)
1(1)
1(1)
1(1)
1(1)
1(1)
1(1)
1(1)
1(1)
1(1)
)

// edgeNormals

72
(
2(0 1)
2(0 20)
2(1 4)
2(2 3)
2(2 18)
2(3 6)
2(4 5)
2(5 8)
2(6 7)
2(7 10)
2(8 9)
2(9 12)
2(10 11)
2(11 14)
2(12 13)
2(13 16)
2(14 15)
2(15 17)
2(16 17)
2(18 19)
2(19 22)
2(20 21)
2(21 24)
2(22 23)
2(23 26)
2(24 25)
2(25 28)
2(26 27)
2(27 30)
2(28 29)
2(29 32)
2(30 31)
2(31 34)
2(32 33)
2(33 35)
2(34 35)
1(0)
1(1)
1(2)
1(3)
1(4)
1(5)
1(6)
1(7)
1(8)
1(9)
1(10)
1(11)
1(12)
1(13)
1(14)
1(15)
1(16)
1(17)
1(18)
1(19)
1(20)
1(21)
1(22)
1(23)
1(24)
1(25)
1(26)
1(27)
1(28)
1(29)
1(30)
1(31)
1(32)
1(33)
1(34)
1(35)
)

// featurePointNormals

36
(
1(0)
1(0)
1(0)
1(1)
1(2)
1(2)
1(2)
1(3)
1(4)
1(5)
1(6)
1(7)
1(8)
1(9)
1(10)
1(11)
1(12)
1(13)
1(15)
1(16)
1(18)
1(19)
1(20)
1(21)
1(22)
1(23)
1(24)
1(25)
1(26)
1(27)
1(28)
1(29)
1(30)
1(31)
1(33)
1(34)
)

// featurePointEdges

36
(

13
(
0
2
6
7
10
11
14
15
16
17
18
36
50
)

9(1 21 22 25 26 29 30 36 68)
4(0 1 37 56)
3(2 37 40)
3(3 38 39)
4(4 19 38 55)
9(3 4 5 8 9 12 13 50 54)
3(5 39 42)
3(6 40 41)
3(7 41 44)
3(8 42 43)
3(9 43 46)
3(10 44 45)
3(11 45 48)
3(12 46 47)
4(13 16 47 51)
3(14 48 49)
3(15 49 52)
3(17 51 53)
3(18 52 53)

13
(
19
20
23
24
27
28
31
32
33
34
35
54
68
)

3(20 55 58)
3(21 56 57)
3(22 57 60)
3(23 58 59)
3(24 59 62)
3(25 60 61)
3(26 61 64)
3(27 62 63)
3(28 63 66)
3(29 64 65)
4(30 33 65 69)
3(31 66 67)
3(32 67 70)
3(34 69 71)
3(35 70 71)
)

// regionEdges

36
(
36
37
38
39
40
41
42
43
44
45
46
47
48
49
50
51
52
53
54
55
56
57
58
59
60
61
62
63
64
65
66
67
68
69
70
71
)



// ************************************************************************* //
